data_100_Epidote
_audit_creation_date              2021-06-16
_audit_creation_method            'Materials Studio'
_symmetry_space_group_name_H-M    'P21/M'
_symmetry_Int_Tables_number       11
_symmetry_cell_setting            monoclinic
loop_
_symmetry_equiv_pos_as_xyz
  x,y,z
  -x,y+1/2,-z
  -x,-y,-z
  x,-y+1/2,z
_cell_length_a                    9.0083
_cell_length_b                    5.7150
_cell_length_c                    10.2594
_cell_angle_alpha                 90.0000
_cell_angle_beta                  115.3720
_cell_angle_gamma                 90.0000
loop_
_atom_site_label
_atom_site_type_symbol
_atom_site_fract_x
_atom_site_fract_y
_atom_site_fract_z
_atom_site_U_iso_or_equiv
_atom_site_adp_type
_atom_site_occupancy
O10    O     0.20672   0.51537   0.66002   0.00000  Uiso   1.00
O11    O     0.23520   0.50375   0.04891   0.00000  Uiso   1.00
O12    O     0.29903   0.51373   0.34946   0.00000  Uiso   1.00
Ca1    Ca    0.24401   0.25000   0.84638   0.00000  Uiso   1.00
Ca2    Ca    0.38823   0.25000   0.56928   0.00000  Uiso   1.00
Fe5    Fe    0.28464   0.25000   0.21340   0.00000  Uiso   1.00
H9     H     0.05846   0.25000   0.32693   0.00000  Uiso   1.00
O14    O     0.05028   0.25000   0.12977   0.00000  Uiso   1.00
O16    O     0.08223   0.25000   0.43002   0.00000  Uiso   1.00
O19    O     0.48192   0.25000   0.81571   0.00000  Uiso   1.00
Al3    Al    0.00000   0.00000   0.00000   0.00000  Uiso   1.00
Al4    Al    0.00000   0.00000   0.50000   0.00000  Uiso   1.00
Si6    Si    0.18186   0.75000   0.31388   0.00000  Uiso   1.00
Si7    Si    0.31893   0.75000   0.72770   0.00000  Uiso   1.00
Si8    Si    0.34056   0.75000   0.05447   0.00000  Uiso   1.00
O13    O     0.03577   0.75000   0.14234   0.00000  Uiso   1.00
O15    O     0.06638   0.75000   0.40500   0.00000  Uiso   1.00
O17    O     0.36409   0.75000   0.90284   0.00000  Uiso   1.00
O18    O     0.48186   0.75000   0.69908   0.00000  Uiso   1.00
loop_
_geom_bond_atom_site_label_1
_geom_bond_atom_site_label_2
_geom_bond_distance
_geom_bond_site_symmetry_2
_ccdc_geom_bond_type
O10    Si7     1.643   .     S
O10    Al4     1.884   2_556 S
O11    Fe5     2.122   .     S
O11    Si8     1.685   .     S
O11    Al3     1.957   2     S
O12    Fe5     2.020   .     S
O12    Si6     1.655   .     S
Fe5    O12     2.020   4     S
Fe5    O11     2.122   4     S
Fe5    O14     1.908   .     S
Fe5    O18     1.901   2_646 S
H9     O16     0.985   .     S
O14    Al3     1.871   .     S
O14    Al3     1.871   2     S
O16    Al4     1.887   .     S
O16    Al4     1.887   2_556 S
O19    Si8     1.583   2_646 S
Al3    O14     1.871   2_545 S
Al3    O13     1.968   1_545 S
Al3    O13     1.968   2_545 S
Al3    O11     1.957   2_545 S
Al3    O11     1.957   4     S
Al4    O16     1.887   2_546 S
Al4    O15     1.962   1_545 S
Al4    O15     1.962   2_546 S
Al4    O10     1.884   2_546 S
Al4    O10     1.884   4     S
Si6    O12     1.655   4_565 S
Si6    O13     1.687   .     S
Si6    O15     1.670   .     S
Si7    O10     1.643   4_565 S
Si7    O17     1.664   .     S
Si7    O18     1.616   .     S
Si8    O11     1.685   4_565 S
Si8    O17     1.658   1_554 S
Si8    O19     1.583   2_656 S
O13    Al3     1.968   1_565 S
O13    Al3     1.968   2     S
O15    Al4     1.962   1_565 S
O15    Al4     1.962   2_556 S
O17    Si8     1.658   1_556 S
O18    Fe5     1.901   2_656 S
