data_104_Zoisite
_audit_creation_date              2021-06-16
_audit_creation_method            'Materials Studio'
_symmetry_space_group_name_H-M    'P1'
_symmetry_Int_Tables_number       1
_symmetry_cell_setting            triclinic
loop_
_symmetry_equiv_pos_as_xyz
  x,y,z
_cell_length_a                    5.6063
_cell_length_b                    10.1188
_cell_length_c                    16.3735
_cell_angle_alpha                 90.0000
_cell_angle_beta                  90.0000
_cell_angle_gamma                 90.0000
loop_
_atom_site_label
_atom_site_type_symbol
_atom_site_fract_x
_atom_site_fract_y
_atom_site_fract_z
_atom_site_U_iso_or_equiv
_atom_site_adp_type
_atom_site_occupancy
Ca0    Ca    0.25000   0.38352   0.94987   0.00000  Uiso   1.00
Ca1    Ca    0.75000   0.61648   0.05013   0.00000  Uiso   1.00
Ca2    Ca    0.75000   0.88352   0.55013   0.00000  Uiso   1.00
Ca3    Ca    0.25000   0.11648   0.44987   0.00000  Uiso   1.00
Ca4    Ca    0.25000   0.06402   0.86743   0.00000  Uiso   1.00
Ca5    Ca    0.75000   0.93598   0.13257   0.00000  Uiso   1.00
Ca6    Ca    0.75000   0.56402   0.63257   0.00000  Uiso   1.00
Ca7    Ca    0.25000   0.43598   0.36743   0.00000  Uiso   1.00
Al8    Al    0.75000   0.19931   0.60655   0.00000  Uiso   1.00
Al9    Al    0.25000   0.80069   0.39345   0.00000  Uiso   1.00
Al10   Al    0.25000   0.69931   0.89345   0.00000  Uiso   1.00
Al11   Al    0.75000   0.30069   0.10655   0.00000  Uiso   1.00
Al12   Al    0.49647   0.68957   0.25039   0.00000  Uiso   1.00
Al13   Al    0.99647   0.31043   0.74961   0.00000  Uiso   1.00
Al14   Al    0.50353   0.18957   0.24961   0.00000  Uiso   1.00
Al15   Al    0.00353   0.81043   0.75039   0.00000  Uiso   1.00
Al16   Al    0.50353   0.31043   0.74961   0.00000  Uiso   1.00
Al17   Al    0.00353   0.68957   0.25039   0.00000  Uiso   1.00
Al18   Al    0.49647   0.81043   0.75039   0.00000  Uiso   1.00
Al19   Al    0.99647   0.18957   0.24961   0.00000  Uiso   1.00
Si20   Si    0.25000   0.06517   0.66035   0.00000  Uiso   1.00
Si21   Si    0.75000   0.93483   0.33965   0.00000  Uiso   1.00
Si22   Si    0.75000   0.56517   0.83965   0.00000  Uiso   1.00
Si23   Si    0.25000   0.43483   0.16035   0.00000  Uiso   1.00
Si24   Si    0.75000   0.21755   0.91121   0.00000  Uiso   1.00
Si25   Si    0.25000   0.78245   0.08879   0.00000  Uiso   1.00
Si26   Si    0.25000   0.71755   0.58879   0.00000  Uiso   1.00
Si27   Si    0.75000   0.28245   0.41121   0.00000  Uiso   1.00
Si28   Si    0.25000   0.39261   0.58166   0.00000  Uiso   1.00
Si29   Si    0.75000   0.60739   0.41834   0.00000  Uiso   1.00
Si30   Si    0.75000   0.89261   0.91834   0.00000  Uiso   1.00
Si31   Si    0.25000   0.10739   0.08166   0.00000  Uiso   1.00
H32    H     0.25000   0.52312   0.76883   0.00000  Uiso   1.00
H33    H     0.75000   0.47688   0.23117   0.00000  Uiso   1.00
H34    H     0.75000   0.02312   0.73117   0.00000  Uiso   1.00
H35    H     0.25000   0.97688   0.26883   0.00000  Uiso   1.00
O36    O     0.25000   0.42505   0.76756   0.00000  Uiso   1.00
O37    O     0.75000   0.57495   0.23244   0.00000  Uiso   1.00
O38    O     0.75000   0.92505   0.73244   0.00000  Uiso   1.00
O39    O     0.25000   0.07495   0.26756   0.00000  Uiso   1.00
O40    O     0.75000   0.05575   0.92012   0.00000  Uiso   1.00
O41    O     0.25000   0.94425   0.07988   0.00000  Uiso   1.00
O42    O     0.25000   0.55575   0.57988   0.00000  Uiso   1.00
O43    O     0.75000   0.44425   0.42012   0.00000  Uiso   1.00
O44    O     0.75000   0.20647   0.49720   0.00000  Uiso   1.00
O45    O     0.25000   0.79353   0.50280   0.00000  Uiso   1.00
O46    O     0.25000   0.70647   0.00280   0.00000  Uiso   1.00
O47    O     0.75000   0.29353   0.99720   0.00000  Uiso   1.00
O48    O     0.25000   0.33589   0.49109   0.00000  Uiso   1.00
O49    O     0.75000   0.66411   0.50891   0.00000  Uiso   1.00
O50    O     0.75000   0.83589   0.00891   0.00000  Uiso   1.00
O51    O     0.25000   0.16411   0.99109   0.00000  Uiso   1.00
O52    O     0.75000   0.44035   0.77157   0.00000  Uiso   1.00
O53    O     0.25000   0.55965   0.22843   0.00000  Uiso   1.00
O54    O     0.25000   0.94035   0.72843   0.00000  Uiso   1.00
O55    O     0.75000   0.05965   0.27157   0.00000  Uiso   1.00
O56    O     0.25000   0.18824   0.72844   0.00000  Uiso   1.00
O57    O     0.75000   0.81176   0.27156   0.00000  Uiso   1.00
O58    O     0.75000   0.68824   0.77156   0.00000  Uiso   1.00
O59    O     0.25000   0.31176   0.22844   0.00000  Uiso   1.00
O60    O     0.75000   0.19895   0.71916   0.00000  Uiso   1.00
O61    O     0.25000   0.80105   0.28084   0.00000  Uiso   1.00
O62    O     0.25000   0.69895   0.78084   0.00000  Uiso   1.00
O63    O     0.75000   0.30105   0.21916   0.00000  Uiso   1.00
O64    O     0.49068   0.74404   0.14068   0.00000  Uiso   1.00
O65    O     0.99068   0.25596   0.85932   0.00000  Uiso   1.00
O66    O     0.50932   0.24404   0.35932   0.00000  Uiso   1.00
O67    O     0.00932   0.75596   0.64068   0.00000  Uiso   1.00
O68    O     0.50932   0.25596   0.85932   0.00000  Uiso   1.00
O69    O     0.00932   0.74404   0.14068   0.00000  Uiso   1.00
O70    O     0.49068   0.75596   0.64068   0.00000  Uiso   1.00
O71    O     0.99068   0.24404   0.35932   0.00000  Uiso   1.00
O72    O     0.51221   0.92990   0.39817   0.00000  Uiso   1.00
O73    O     0.01221   0.07010   0.60183   0.00000  Uiso   1.00
O74    O     0.48779   0.42990   0.10183   0.00000  Uiso   1.00
O75    O     0.98779   0.57010   0.89817   0.00000  Uiso   1.00
O76    O     0.48779   0.07010   0.60183   0.00000  Uiso   1.00
O77    O     0.98779   0.92990   0.39817   0.00000  Uiso   1.00
O78    O     0.51221   0.57010   0.89817   0.00000  Uiso   1.00
O79    O     0.01221   0.42990   0.10183   0.00000  Uiso   1.00
O80    O     0.49775   0.64670   0.36956   0.00000  Uiso   1.00
O81    O     0.99775   0.35330   0.63044   0.00000  Uiso   1.00
O82    O     0.50225   0.14670   0.13044   0.00000  Uiso   1.00
O83    O     0.00225   0.85330   0.86956   0.00000  Uiso   1.00
O84    O     0.50225   0.35330   0.63044   0.00000  Uiso   1.00
O85    O     0.00225   0.64670   0.36956   0.00000  Uiso   1.00
O86    O     0.49775   0.85330   0.86956   0.00000  Uiso   1.00
O87    O     0.99775   0.14670   0.13044   0.00000  Uiso   1.00
