data_106_Albite
_audit_creation_date              2021-06-16
_audit_creation_method            'Materials Studio'
_symmetry_space_group_name_H-M    'P-1'
_symmetry_Int_Tables_number       2
_symmetry_cell_setting            triclinic
loop_
_symmetry_equiv_pos_as_xyz
  x,y,z
  -x,-y,-z
_cell_length_a                    7.2519
_cell_length_b                    7.5433
_cell_length_c                    7.8292
_cell_angle_alpha                 114.7369
_cell_angle_beta                  107.0594
_cell_angle_gamma                 100.6450
loop_
_atom_site_label
_atom_site_type_symbol
_atom_site_fract_x
_atom_site_fract_y
_atom_site_fract_z
_atom_site_U_iso_or_equiv
_atom_site_adp_type
_atom_site_occupancy
Na1    Na    0.15120   0.28702   0.25245   0.00000  Uiso   1.00
Al2    Al    0.21005   0.84186   0.18242   0.00000  Uiso   1.00
Si3    Si    0.23837   0.18779   0.82839   0.00000  Uiso   1.00
Si4    Si    0.31785   0.58465   0.80709   0.00000  Uiso   1.00
Si5    Si    0.36226   0.80556   0.57103   0.00000  Uiso   1.00
O6     O     0.03326   0.13007   0.86550   0.00000  Uiso   1.00
O7     O     0.19623   0.70325   0.93101   0.00000  Uiso   1.00
O8     O     0.23323   0.33454   0.72276   0.00000  Uiso   1.00
O9     O     0.26403   0.97641   0.68016   0.00000  Uiso   1.00
O10    O     0.26999   0.71786   0.32548   0.00000  Uiso   1.00
O11    O     0.28068   0.60108   0.59702   0.00000  Uiso   1.00
O12    O     0.38828   0.09844   0.31450   0.00000  Uiso   1.00
O13    O     0.43300   0.31775   0.05550   0.00000  Uiso   1.00
