data_107_Cordierite
_audit_creation_date              2021-06-16
_audit_creation_method            'Materials Studio'
_symmetry_space_group_name_H-M    ' '
_symmetry_Int_Tables_number       0
_symmetry_cell_setting            orthorhombic
loop_
_symmetry_equiv_pos_as_xyz
  x,y,z
  -x,-y,z
  y,x,-z+1/2
  -y,-x,-z+1/2
  -x,-y,-z
  x,y,-z
  -y,-x,z+1/2
  y,x,z+1/2
_cell_length_a                    9.9346
_cell_length_b                    9.9346
_cell_length_c                    9.4402
_cell_angle_alpha                 90.0000
_cell_angle_beta                  90.0000
_cell_angle_gamma                 59.3059
loop_
_atom_site_label
_atom_site_type_symbol
_atom_site_fract_x
_atom_site_fract_y
_atom_site_fract_z
_atom_site_U_iso_or_equiv
_atom_site_adp_type
_atom_site_occupancy
O7     O     0.64615   0.47875   0.15111   0.00000  Uiso   1.00
O8     O     0.35008   0.14414   0.35852   0.00000  Uiso   1.00
O9     O     0.86342   0.48343   0.35822   0.00000  Uiso   1.00
Mg1    Mg    0.33747   0.33747   0.25000   0.00000  Uiso   1.00
Al2    Al    0.74235   0.35839   0.00000   0.00000  Uiso   1.00
O10    O     0.24300   0.08542   0.00000   0.00000  Uiso   1.00
O11    O     1.06311   0.69287   0.00000   0.00000  Uiso   1.00
O12    O     0.29194  -0.20497   0.00000   0.00000  Uiso   1.00
Al3    Al    0.50000  -0.00000   0.24992   0.00000  Uiso   1.00
Si4    Si    0.27096   0.11344   0.50000   0.00000  Uiso   1.00
Si5    Si    1.10158   0.62787   0.50000   0.00000  Uiso   1.00
Si6    Si    0.50000   0.50000   0.25000   0.00000  Uiso   1.00
loop_
_geom_bond_atom_site_label_1
_geom_bond_atom_site_label_2
_geom_bond_distance
_geom_bond_site_symmetry_2
_ccdc_geom_bond_type
O7     Al2     1.792   .     S
O7     Si6     1.647   .     S
O8     Al3     1.773   .     S
O8     Si4     1.655   .     S
O9     Si5     1.656   2_765 S
O9     Al3     1.772   3_655 S
Al2    O7      1.792   6     S
Al2    O11     1.729   2_765 S
Al2    O12     1.723   2_655 S
O10    Si4     1.622   3     S
O10    Si5     1.632   4_665 S
O11    Al2     1.729   2_765 S
O11    Si4     1.601   4_665 S
O12    Al2     1.723   2_655 S
O12    Si5     1.589   4_665 S
Al3    O8      1.773   2_655 S
Al3    O9      1.772   3_545 S
Al3    O9      1.772   4_665 S
Si4    O8      1.655   6_556 S
Si4    O10     1.622   3     S
Si4    O11     1.601   4_665 S
Si5    O9      1.656   2_765 S
Si5    O9      1.656   5_766 S
Si5    O10     1.632   4_665 S
Si5    O12     1.589   4_665 S
Si6    O7      1.647   2_665 S
Si6    O7      1.647   3     S
Si6    O7      1.647   4_665 S
