data_10_LaAlGe2O7
_audit_creation_date              2021-06-15
_audit_creation_method            'Materials Studio'
_symmetry_space_group_name_H-M    'P21/C'
_symmetry_Int_Tables_number       14
_symmetry_cell_setting            monoclinic
loop_
_symmetry_equiv_pos_as_xyz
  x,y,z
  -x,y+1/2,-z+1/2
  -x,-y,-z
  x,-y+1/2,z+1/2
_cell_length_a                    7.3777
_cell_length_b                    6.6300
_cell_length_c                    12.9990
_cell_angle_alpha                 90.0000
_cell_angle_beta                  117.4878
_cell_angle_gamma                 90.0000
loop_
_atom_site_label
_atom_site_type_symbol
_atom_site_fract_x
_atom_site_fract_y
_atom_site_fract_z
_atom_site_U_iso_or_equiv
_atom_site_adp_type
_atom_site_occupancy
La1    La    0.26314   0.64757   0.52543   0.00000  Uiso   1.00
Al2    Al    0.28393   0.60354   0.26927   0.00000  Uiso   1.00
Ge3    Ge    0.19851   0.09097   0.28311   0.00000  Uiso   1.00
Ge4    Ge    0.29438   0.15741   0.55236   0.00000  Uiso   1.00
O5     O     0.06873   0.62175   0.29861   0.00000  Uiso   1.00
O6     O     0.09705   0.17805   0.02587   0.00000  Uiso   1.00
O7     O     0.25662   0.00654   0.42943   0.00000  Uiso   1.00
O8     O     0.27308   0.61495   0.72508   0.00000  Uiso   1.00
O9     O     0.29920   0.55014   0.13757   0.00000  Uiso   1.00
O10    O     0.33632   0.18025   0.81298   0.00000  Uiso   1.00
O11    O     0.49784   0.16306   0.08859   0.00000  Uiso   1.00
