data_113_Chrysoberyl
_audit_creation_date              2021-06-16
_audit_creation_method            'Materials Studio'
_symmetry_space_group_name_H-M    'PNMA'
_symmetry_Int_Tables_number       62
_symmetry_cell_setting            orthorhombic
loop_
_symmetry_equiv_pos_as_xyz
  x,y,z
  -x+1/2,-y,z+1/2
  -x,y+1/2,-z
  x+1/2,-y+1/2,-z+1/2
  -x,-y,-z
  x+1/2,y,-z+1/2
  x,-y+1/2,z
  -x+1/2,y+1/2,z+1/2
_cell_length_a                    9.4999
_cell_length_b                    5.5279
_cell_length_c                    4.4615
_cell_angle_alpha                 90.0000
_cell_angle_beta                  90.0000
_cell_angle_gamma                 90.0000
loop_
_atom_site_label
_atom_site_type_symbol
_atom_site_fract_x
_atom_site_fract_y
_atom_site_fract_z
_atom_site_U_iso_or_equiv
_atom_site_adp_type
_atom_site_occupancy
O4     O     0.16308   0.51611   0.74251   0.00000  Uiso   1.00
Be1    Be    0.09245   0.75000   0.56697   0.00000  Uiso   1.00
O6     O     0.09044   0.75000   0.21345   0.00000  Uiso   1.00
Al2    Al    0.00000   0.00000   0.00000   0.00000  Uiso   1.00
Al3    Al    0.22715   0.25000   0.50526   0.00000  Uiso   1.00
O5     O     0.06645   0.25000   0.25935   0.00000  Uiso   1.00
