data_115_Kaolinite
_audit_creation_date              2021-06-16
_audit_creation_method            'Materials Studio'
_symmetry_space_group_name_H-M    'P1'
_symmetry_Int_Tables_number       1
_symmetry_cell_setting            triclinic
loop_
_symmetry_equiv_pos_as_xyz
  x,y,z
_cell_length_a                    5.2130
_cell_length_b                    7.4788
_cell_length_c                    9.0515
_cell_angle_alpha                 88.2129
_cell_angle_beta                  89.7281
_cell_angle_gamma                 75.0254
loop_
_atom_site_label
_atom_site_type_symbol
_atom_site_fract_x
_atom_site_fract_y
_atom_site_fract_z
_atom_site_U_iso_or_equiv
_atom_site_adp_type
_atom_site_occupancy
Al0    Al    0.35327   0.54375   0.82836   0.00000  Uiso   1.00
Al1    Al    0.36029   0.54154   0.49241   0.00000  Uiso   1.00
Al2    Al    0.85285   0.54388   0.32840   0.00000  Uiso   1.00
Al3    Al    0.86083   0.54143   0.99248   0.00000  Uiso   1.00
Si4    Si    0.05852   0.92691   0.33752   0.00000  Uiso   1.00
Si5    Si    0.07301   0.92550   0.66596   0.00000  Uiso   1.00
Si6    Si    0.55868   0.92690   0.83752   0.00000  Uiso   1.00
Si7    Si    0.57295   0.92546   0.16594   0.00000  Uiso   1.00
H8     H     0.10615   0.28925   0.50096   0.00000  Uiso   1.00
H9     H     0.10846   0.28916   0.81572   0.00000  Uiso   1.00
H10    H     0.12017   0.28774   0.16955   0.00000  Uiso   1.00
H11    H     0.20397   0.69187   0.06001   0.00000  Uiso   1.00
H12    H     0.60730   0.28979   0.31498   0.00000  Uiso   1.00
H13    H     0.60691   0.28897   1.00053   0.00000  Uiso   1.00
H14    H     0.62067   0.28794   0.66916   0.00000  Uiso   1.00
H15    H     0.70291   0.69247   0.55991   0.00000  Uiso   1.00
O16    O     0.01636   0.41556   0.16464   0.00000  Uiso   1.00
O17    O     0.06174   0.02085   0.49897   0.00000  Uiso   1.00
O18    O     0.09810   0.41583   0.46960   0.00000  Uiso   1.00
O19    O     0.09989   0.40901   0.85624   0.00000  Uiso   1.00
O20    O     0.11138   0.70400   0.35233   0.00000  Uiso   1.00
O21    O     0.11094   0.69203   0.96707   0.00000  Uiso   1.00
O22    O     0.18333   0.70283   0.66174   0.00000  Uiso   1.00
O23    O     0.26448   0.02046   0.76373   0.00000  Uiso   1.00
O24    O     0.27090   0.99693   0.23090   0.00000  Uiso   1.00
O25    O     0.51634   0.41562   0.66444   0.00000  Uiso   1.00
O26    O     0.56170   0.02085   0.99897   0.00000  Uiso   1.00
O27    O     0.59927   0.40925   0.35605   0.00000  Uiso   1.00
O28    O     0.59878   0.41564   0.96940   0.00000  Uiso   1.00
O29    O     0.61028   0.69227   0.46690   0.00000  Uiso   1.00
O30    O     0.61184   0.70397   0.85230   0.00000  Uiso   1.00
O31    O     0.68337   0.70280   0.16165   0.00000  Uiso   1.00
O32    O     0.76436   0.02045   0.26369   0.00000  Uiso   1.00
O33    O     0.77098   0.99710   0.73095   0.00000  Uiso   1.00
