data_11_Aluminum\chloride
_audit_creation_date              2021-06-15
_audit_creation_method            'Materials Studio'
_symmetry_space_group_name_H-M    ' '
_symmetry_Int_Tables_number       0
_symmetry_cell_setting            monoclinic
loop_
_symmetry_equiv_pos_as_xyz
  x,y,z
  -y,-x,-z
  -x,-y,-z
  y,x,z
_cell_length_a                    6.0242
_cell_length_b                    6.0242
_cell_length_c                    6.6532
_cell_angle_alpha                 98.4650
_cell_angle_beta                  98.4650
_cell_angle_gamma                 119.9702
loop_
_atom_site_label
_atom_site_type_symbol
_atom_site_fract_x
_atom_site_fract_y
_atom_site_fract_z
_atom_site_U_iso_or_equiv
_atom_site_adp_type
_atom_site_occupancy
Cl2    Cl   -0.06935   0.56812   0.20986   0.00000  Uiso   1.00
Al1    Al   -0.16664   0.16664   0.00000   0.00000  Uiso   1.00
Cl3    Cl    0.20513   0.20513   0.21053   0.00000  Uiso   1.00
loop_
_geom_bond_atom_site_label_1
_geom_bond_atom_site_label_2
_geom_bond_distance
_geom_bond_site_symmetry_2
_ccdc_geom_bond_type
Cl2    Al1     2.343   .     S
Cl2    Al1     2.344   3_565 S
Al1    Cl2     2.343   2     S
Al1    Cl3     2.344   .     S
Al1    Cl3     2.344   2     S
Al1    Cl2     2.344   3_565 S
Al1    Cl2     2.344   4_455 S
Cl3    Al1     2.344   3     S
