data_124_(CaO)12(Al2O3)7
_audit_creation_date              2021-06-16
_audit_creation_method            'Materials Studio'
_symmetry_space_group_name_H-M    'P1'
_symmetry_Int_Tables_number       1
_symmetry_cell_setting            triclinic
loop_
_symmetry_equiv_pos_as_xyz
  x,y,z
_cell_length_a                    10.4495
_cell_length_b                    10.4603
_cell_length_c                    10.4690
_cell_angle_alpha                 109.3271
_cell_angle_beta                  109.9183
_cell_angle_gamma                 109.0972
loop_
_atom_site_label
_atom_site_type_symbol
_atom_site_fract_x
_atom_site_fract_y
_atom_site_fract_z
_atom_site_U_iso_or_equiv
_atom_site_adp_type
_atom_site_occupancy
Ca0    Ca    0.11169   0.24872   0.86064   0.00000  Uiso   1.00
Ca1    Ca    0.13710   0.39023   0.25109   0.00000  Uiso   1.00
Ca2    Ca    0.24918   0.88377   0.13972   0.00000  Uiso   1.00
Ca3    Ca    0.25580   0.36691   0.61587   0.00000  Uiso   1.00
Ca4    Ca    0.36090   0.10749   0.74476   0.00000  Uiso   1.00
Ca5    Ca    0.44920   0.74863   0.69764   0.00000  Uiso   1.00
Ca6    Ca    0.61408   0.86060   0.24547   0.00000  Uiso   1.00
Ca7    Ca    0.63978   0.24905   0.38875   0.00000  Uiso   1.00
Ca8    Ca    0.74881   0.13084   0.88635   0.00000  Uiso   1.00
Ca9    Ca    0.75574   0.61379   0.36306   0.00000  Uiso   1.00
Ca10   Ca    0.80258   0.74879   0.05126   0.00000  Uiso   1.00
Ca11   Ca    0.88405   0.63788   0.75186   0.00000  Uiso   1.00
Al12   Al   -0.00045   0.53509   0.00101   0.00000  Uiso   1.00
Al13   Al    0.00282   0.03657  -0.00010   0.00000  Uiso   1.00
Al14   Al    0.03848   0.50181   0.50127   0.00000  Uiso   1.00
Al15   Al    0.12588   0.74880   0.37470   0.00000  Uiso   1.00
Al16   Al    0.24972   0.62441   0.87478   0.00000  Uiso   1.00
Al17   Al    0.37574   0.24894   0.12481   0.00000  Uiso   1.00
Al18   Al    0.46312   0.46110   0.96414   0.00000  Uiso   1.00
Al19   Al    0.49934   0.99618   0.53447   0.00000  Uiso   1.00
Al20   Al    0.50052   0.00066   0.03722   0.00000  Uiso   1.00
Al21   Al    0.53652   0.49727   0.49777   0.00000  Uiso   1.00
Al22   Al    0.62564   0.37284   0.75003   0.00000  Uiso   1.00
Al23   Al    0.75061   0.87342   0.62323   0.00000  Uiso   1.00
Al24   Al    0.87744   0.12527   0.25096   0.00000  Uiso   1.00
Al25   Al    0.96595   0.96274   0.46213   0.00000  Uiso   1.00
O26    O     0.01299   0.87366  -0.00202   0.00000  Uiso   1.00
O27    O     0.02167   0.31299   0.41110   0.00000  Uiso   1.00
O28    O     0.08951   0.60876   0.90264   0.00000  Uiso   1.00
O29    O     0.09833   0.58220   0.39389   0.00000  Uiso   1.00
O30    O     0.10697   0.70215   0.18901   0.00000  Uiso   1.00
O31    O     0.12936   0.13372   0.62889   0.00000  Uiso   1.00
O32    O     0.18719   0.20972   0.09124   0.00000  Uiso   1.00
O33    O     0.21083   0.59195   0.68659   0.00000  Uiso   1.00
O34    O     0.29150   0.47702   0.88587   0.00000  Uiso   1.00
O35    O     0.31137   0.91560   0.51383   0.00000  Uiso   1.00
O36    O     0.36317   0.48476   0.48752   0.00000  Uiso   1.00
O37    O     0.38176   0.28809   0.97574   0.00000  Uiso   1.00
O38    O     0.40024   0.81566   0.02222   0.00000  Uiso   1.00
O39    O     0.40875   0.09362   0.11895   0.00000  Uiso   1.00
O40    O     0.47779   0.37493   0.79395   0.00000  Uiso   1.00
O41    O     0.50702   0.99957   0.37108   0.00000  Uiso   1.00
O42    O     0.50315   0.01273   0.87659   0.00000  Uiso   1.00
O43    O     0.52499   0.40379   0.31301   0.00000  Uiso   1.00
O44    O     0.59459   0.90595   0.61668   0.00000  Uiso   1.00
O45    O     0.59793   0.18479   0.70629   0.00000  Uiso   1.00
O46    O     0.61439   0.40365   0.59178   0.00000  Uiso   1.00
O47    O     0.62371   0.62446   0.13676   0.00000  Uiso   1.00
O48    O     0.62697   0.74693   0.87166   0.00000  Uiso   1.00
O49    O     0.68796   0.09412   0.20858   0.00000  Uiso   1.00
O50    O     0.70651   0.68174   0.58102   0.00000  Uiso   1.00
O51    O     0.79416   0.88984   0.47910   0.00000  Uiso   1.00
O52    O     0.81387   0.52181   0.90585   0.00000  Uiso   1.00
O53    O     0.87138   0.49828   0.50548   0.00000  Uiso   1.00
O54    O     0.88390   0.97586   0.28981   0.00000  Uiso   1.00
O55    O     0.90889   0.02021   0.81235   0.00000  Uiso   1.00
O56    O     0.91839   0.12263   0.10059   0.00000  Uiso   1.00
O57    O     0.98625   0.79513   0.40193   0.00000  Uiso   1.00
O58    O     0.99508   0.36375   0.99304   0.00000  Uiso   1.00
