data_137_CaO\(Al2O3)2
_audit_creation_date              2021-06-16
_audit_creation_method            'Materials Studio'
_symmetry_space_group_name_H-M    ' '
_symmetry_Int_Tables_number       0
_symmetry_cell_setting            monoclinic
loop_
_symmetry_equiv_pos_as_xyz
  x,y,z
  -y,-x,-z+1/2
  -x,-y,-z
  y,x,z+1/2
_cell_length_a                    7.8162
_cell_length_b                    7.8162
_cell_length_c                    5.4400
_cell_angle_alpha                 103.7211
_cell_angle_beta                  103.7211
_cell_angle_gamma                 69.2202
loop_
_atom_site_label
_atom_site_type_symbol
_atom_site_fract_x
_atom_site_fract_y
_atom_site_fract_z
_atom_site_U_iso_or_equiv
_atom_site_adp_type
_atom_site_occupancy
Al1    Al   -0.75065   1.07667   0.30528   0.00000  Uiso   1.00
O2     O    -0.82926   1.05920   0.57218   0.00000  Uiso   1.00
Al2    Al   -0.43958   0.67940   0.23905   0.00000  Uiso   1.00
O3     O    -0.62726   0.86417   0.14431   0.00000  Uiso   1.00
O4     O    -0.36587   0.75103   0.57840   0.00000  Uiso   1.00
O1     O    -0.46660   0.46660   0.25000   0.00000  Uiso   1.00
Ca1    Ca   -0.19389   0.19389   0.25000   0.00000  Uiso   1.00
