data_13_alpha-Al2O3
_audit_creation_date              2021-06-15
_audit_creation_method            'Materials Studio'
_symmetry_space_group_name_H-M    'R-3C'
_symmetry_Int_Tables_number       167
_symmetry_cell_setting            trigonal
loop_
_symmetry_equiv_pos_as_xyz
  x,y,z
  z,x,y
  y,z,x
  -y+1/2,-x+1/2,-z+1/2
  -x+1/2,-z+1/2,-y+1/2
  -z+1/2,-y+1/2,-x+1/2
  -x,-y,-z
  -z,-x,-y
  -y,-z,-x
  y+1/2,x+1/2,z+1/2
  x+1/2,z+1/2,y+1/2
  z+1/2,y+1/2,x+1/2
_cell_length_a                    5.1805
_cell_length_b                    5.1805
_cell_length_c                    5.1805
_cell_angle_alpha                 55.2909
_cell_angle_beta                  55.2909
_cell_angle_gamma                 55.2909
loop_
_atom_site_label
_atom_site_type_symbol
_atom_site_fract_x
_atom_site_fract_y
_atom_site_fract_z
_atom_site_U_iso_or_equiv
_atom_site_adp_type
_atom_site_occupancy
O1     O     0.25000   0.94376  -0.44376   0.00000  Uiso   1.00
Al3    Al    0.14785   1.14785   0.14785   0.00000  Uiso   1.00
