data_146_theta-Al2O3
_audit_creation_date              2021-06-16
_audit_creation_method            'Materials Studio'
_symmetry_space_group_name_H-M    ' '
_symmetry_Int_Tables_number       0
_symmetry_cell_setting            monoclinic
loop_
_symmetry_equiv_pos_as_xyz
  x,y,z
  -y,-x,-z
  -x,-y,-z
  y,x,z
_cell_length_a                    6.0811
_cell_length_b                    6.0811
_cell_length_c                    5.6345
_cell_angle_alpha                 103.6486
_cell_angle_beta                  103.6486
_cell_angle_gamma                 27.7727
loop_
_atom_site_label
_atom_site_type_symbol
_atom_site_fract_x
_atom_site_fract_y
_atom_site_fract_z
_atom_site_U_iso_or_equiv
_atom_site_adp_type
_atom_site_occupancy
O1     O     0.16174   0.16174   0.10968   0.01456  Uiso   1.00
O2     O     0.49506   0.49506   0.25681   0.00709  Uiso   1.00
O3     O     0.82676   0.82676   0.43421   0.00684  Uiso   1.00
Al1    Al    0.09088   0.09088   0.79628   0.02609  Uiso   1.00
Al2    Al    0.34198   0.34198   0.68264   0.01621  Uiso   1.00
