data_148_alpha-LiAlO2
_audit_creation_date              2021-06-16
_audit_creation_method            'Materials Studio'
_symmetry_space_group_name_H-M    'R-3M'
_symmetry_Int_Tables_number       166
_symmetry_cell_setting            trigonal
loop_
_symmetry_equiv_pos_as_xyz
  x,y,z
  z,x,y
  y,z,x
  -y,-x,-z
  -x,-z,-y
  -z,-y,-x
  -x,-y,-z
  -z,-x,-y
  -y,-z,-x
  y,x,z
  x,z,y
  z,y,x
_cell_length_a                    4.9970
_cell_length_b                    4.9970
_cell_length_c                    4.9970
_cell_angle_alpha                 32.5732
_cell_angle_beta                  32.5732
_cell_angle_gamma                 32.5732
loop_
_atom_site_label
_atom_site_type_symbol
_atom_site_fract_x
_atom_site_fract_y
_atom_site_fract_z
_atom_site_U_iso_or_equiv
_atom_site_adp_type
_atom_site_occupancy
Li1    Li    0.00000   0.00000   0.00000   0.00000  Uiso   1.00
Al2    Al    0.50000   0.50000  -0.50000   0.00000  Uiso   1.00
O3     O     0.23880   0.23880   0.23880   0.00000  Uiso   1.00
