data_14_Andalusite
_audit_creation_date              2021-06-14
_audit_creation_method            'Materials Studio'
_symmetry_space_group_name_H-M    'P1'
_symmetry_Int_Tables_number       1
_symmetry_cell_setting            triclinic
loop_
_symmetry_equiv_pos_as_xyz
  x,y,z
_cell_length_a                    5.6171
_cell_length_b                    7.8843
_cell_length_c                    7.9868
_cell_angle_alpha                 90.0000
_cell_angle_beta                  90.0000
_cell_angle_gamma                 90.0000
loop_
_atom_site_label
_atom_site_type_symbol
_atom_site_fract_x
_atom_site_fract_y
_atom_site_fract_z
_atom_site_U_iso_or_equiv
_atom_site_adp_type
_atom_site_occupancy
Al1    Al    0.24171  -0.00000   0.00000   0.00000  Uiso   1.00
Al2    Al    0.25829   0.50000   0.50000   0.00000  Uiso   1.00
Al3    Al    0.75829  -0.00000   0.00000   0.00000  Uiso   1.00
Al4    Al    0.74171   0.50000   0.50000   0.00000  Uiso   1.00
Al5    Al    0.00000   0.12944   0.63916   0.00000  Uiso   1.00
Al6    Al    0.00000   0.87056   0.36084   0.00000  Uiso   1.00
Al7    Al    0.50000   0.62944   0.86084   0.00000  Uiso   1.00
Al8    Al    0.50000   0.37056   0.13916   0.00000  Uiso   1.00
Si9    Si   -0.00000   0.24571   0.25229   0.00000  Uiso   1.00
Si10   Si   -0.00000   0.75429   0.74771   0.00000  Uiso   1.00
Si11   Si    0.50000   0.74571   0.24771   0.00000  Uiso   1.00
Si12   Si    0.50000   0.25429   0.75229   0.00000  Uiso   1.00
O13    O     0.73965   0.73075   0.36573   0.00000  Uiso   1.00
O14    O     0.73965   0.26925   0.63427   0.00000  Uiso   1.00
O15    O     0.76035   0.23075   0.13427   0.00000  Uiso   1.00
O16    O     0.76035   0.76925   0.86573   0.00000  Uiso   1.00
O17    O     0.26035   0.26925   0.63427   0.00000  Uiso   1.00
O18    O     0.26035   0.73075   0.36573   0.00000  Uiso   1.00
O19    O     0.23965   0.76925   0.86573   0.00000  Uiso   1.00
O20    O     0.23965   0.23075   0.13427   0.00000  Uiso   1.00
O21    O     0.50000   0.39742   0.90058   0.00000  Uiso   1.00
O22    O     0.50000   0.60258   0.09942   0.00000  Uiso   1.00
O23    O    -0.00000   0.89742   0.59942   0.00000  Uiso   1.00
O24    O     0.00000   0.10258   0.40058   0.00000  Uiso   1.00
O25    O     0.50000   0.42404   0.36287   0.00000  Uiso   1.00
O26    O     0.50000   0.57596   0.63713   0.00000  Uiso   1.00
O27    O    -0.00000   0.92404   0.13713   0.00000  Uiso   1.00
O28    O     0.00000   0.07596   0.86287   0.00000  Uiso   1.00
O29    O     0.00000   0.42404   0.36358   0.00000  Uiso   1.00
O30    O     0.00000   0.57596   0.63642   0.00000  Uiso   1.00
O31    O     0.50000   0.92404   0.13642   0.00000  Uiso   1.00
O32    O     0.50000   0.07596   0.86358   0.00000  Uiso   1.00
