data_150_gama-LiAlO2
_audit_creation_date              2021-06-16
_audit_creation_method            'Materials Studio'
_symmetry_space_group_name_H-M    'P41212'
_symmetry_Int_Tables_number       92
_symmetry_cell_setting            tetragonal
loop_
_symmetry_equiv_pos_as_xyz
  x,y,z
  -x,-y,z+1/2
  -y+1/2,x+1/2,z+1/4
  y+1/2,-x+1/2,z+3/4
  -x+1/2,y+1/2,-z+1/4
  x+1/2,-y+1/2,-z+3/4
  y,x,-z
  -y,-x,-z+1/2
_cell_length_a                    5.1751
_cell_length_b                    5.1751
_cell_length_c                    6.2521
_cell_angle_alpha                 90.0000
_cell_angle_beta                  90.0000
_cell_angle_gamma                 90.0000
loop_
_atom_site_label
_atom_site_type_symbol
_atom_site_fract_x
_atom_site_fract_y
_atom_site_fract_z
_atom_site_U_iso_or_equiv
_atom_site_adp_type
_atom_site_occupancy
O3     O     0.16488   0.79266   0.47940   0.00000  Uiso   1.00
Li1    Li    0.18592   0.18592   0.50000   0.00000  Uiso   1.00
Al2    Al    0.17573   0.17573   0.00000   0.00000  Uiso   1.00
