data_151_Sillimanite
_audit_creation_date              2021-06-16
_audit_creation_method            'Materials Studio'
_symmetry_space_group_name_H-M    'PNMA'
_symmetry_Int_Tables_number       62
_symmetry_cell_setting            orthorhombic
loop_
_symmetry_equiv_pos_as_xyz
  x,y,z
  -x+1/2,-y,z+1/2
  -x,y+1/2,-z
  x+1/2,-y+1/2,-z+1/2
  -x,-y,-z
  x+1/2,y,-z+1/2
  x,-y+1/2,z
  -x+1/2,y+1/2,z+1/2
_cell_length_a                    7.6971
_cell_length_b                    5.7865
_cell_length_c                    7.5153
_cell_angle_alpha                 90.0000
_cell_angle_beta                  90.0000
_cell_angle_gamma                 90.0000
loop_
_atom_site_label
_atom_site_type_symbol
_atom_site_fract_x
_atom_site_fract_y
_atom_site_fract_z
_atom_site_U_iso_or_equiv
_atom_site_adp_type
_atom_site_occupancy
O4     O     0.22174   0.51408   0.12633   0.00000  Uiso   1.00
Al1    Al    0.00000   0.00000   0.00000   0.00000  Uiso   1.00
Al2    Al    0.15534   0.75000   0.64236   0.00000  Uiso   1.00
O5     O     0.00191   0.75000   0.47662   0.00000  Uiso   1.00
O6     O     0.06678   0.75000   0.85719   0.00000  Uiso   1.00
Si3    Si    0.16014   0.25000   0.65368   0.00000  Uiso   1.00
O7     O     0.09171   0.25000   0.86109   0.00000  Uiso   1.00
