data_161_AlVO4
_audit_creation_date              2021-06-16
_audit_creation_method            'Materials Studio'
_symmetry_space_group_name_H-M    'P-1'
_symmetry_Int_Tables_number       2
_symmetry_cell_setting            triclinic
loop_
_symmetry_equiv_pos_as_xyz
  x,y,z
  -x,-y,-z
_cell_length_a                    6.6279
_cell_length_b                    7.8519
_cell_length_c                    9.2806
_cell_angle_alpha                 96.1377
_cell_angle_beta                  107.3409
_cell_angle_gamma                 101.5124
loop_
_atom_site_label
_atom_site_type_symbol
_atom_site_fract_x
_atom_site_fract_y
_atom_site_fract_z
_atom_site_U_iso_or_equiv
_atom_site_adp_type
_atom_site_occupancy
Al0    Al    0.03616   0.69464   0.99179   0.00000  Uiso   1.00
Al1    Al    0.25166   0.30181   0.59311   0.00000  Uiso   1.00
Al2    Al    0.46105   0.88135   0.20841   0.00000  Uiso   1.00
V3     V     0.00493   0.99529   0.25577   0.00000  Uiso   1.00
V4     V     0.19296   0.59892   0.34063   0.00000  Uiso   1.00
V5     V     0.48347   0.70118   0.87485   0.00000  Uiso   1.00
O6     O     0.03904   0.70002   0.41841   0.00000  Uiso   1.00
O7     O     0.04919   0.52081   0.14146   0.00000  Uiso   1.00
O8     O     0.04670   0.85381   0.85380   0.00000  Uiso   1.00
O9     O     0.15526   0.86701   0.17452   0.00000  Uiso   1.00
O10    O     0.15863   0.10158   0.43015   0.00000  Uiso   1.00
O11    O     0.24749   0.13341   0.73519   0.00000  Uiso   1.00
O12    O     0.25429   0.29692   0.03438   0.00000  Uiso   1.00
O13    O     0.25195   0.43790   0.43560   0.00000  Uiso   1.00
O14    O     0.35367   0.72932   0.02172   0.00000  Uiso   1.00
O15    O     0.35900   0.51279   0.74577   0.00000  Uiso   1.00
O16    O     0.45476   0.73865   0.35717   0.00000  Uiso   1.00
O17    O     0.47977   0.88381   0.78798   0.00000  Uiso   1.00
