data_164_Gibbsite
_audit_creation_date              2021-06-16
_audit_creation_method            'Materials Studio'
_symmetry_space_group_name_H-M    'P21/C'
_symmetry_Int_Tables_number       14
_symmetry_cell_setting            monoclinic
loop_
_symmetry_equiv_pos_as_xyz
  x,y,z
  -x,y+1/2,-z+1/2
  -x,-y,-z
  x,-y+1/2,z+1/2
_cell_length_a                    8.7506
_cell_length_b                    5.1127
_cell_length_c                    12.8275
_cell_angle_alpha                 90.0000
_cell_angle_beta                  130.9485
_cell_angle_gamma                 90.0000
loop_
_atom_site_label
_atom_site_type_symbol
_atom_site_fract_x
_atom_site_fract_y
_atom_site_fract_z
_atom_site_U_iso_or_equiv
_atom_site_adp_type
_atom_site_occupancy
Al0    Al    0.16274   0.52656   0.49776   0.00000  Uiso   1.00
Al1    Al    0.33047   0.03450   0.49805   0.00000  Uiso   1.00
H2     H     0.00380   0.72509   0.20828   0.00000  Uiso   1.00
H3     H     0.18010   0.55141   0.10207   0.00000  Uiso   1.00
H4     H     0.20825   0.11149   0.20632   0.00000  Uiso   1.00
H5     H     0.29548   0.64116   0.37761   0.00000  Uiso   1.00
H6     H     0.43437   0.18372   0.88719   0.00000  Uiso   1.00
H7     H     0.48201   0.65782   0.29482   0.00000  Uiso   1.00
O8     O     0.09236   0.22130   0.39367   0.00000  Uiso   1.00
O9     O     0.10954   0.13306   0.10520   0.00000  Uiso   1.00
O10    O     0.20469   0.72165   0.38753   0.00000  Uiso   1.00
O11    O     0.27778   0.65090   0.10416   0.00000  Uiso   1.00
O12    O     0.40888   0.13174   0.39221   0.00000  Uiso   1.00
O13    O     0.43069   0.14274   0.10362   0.00000  Uiso   1.00
