data_16_Ca3Al2O6
_audit_creation_date              2021-06-14
_audit_creation_method            'Materials Studio'
_symmetry_space_group_name_H-M    'PA-3'
_symmetry_Int_Tables_number       205
_symmetry_cell_setting            cubic
loop_
_symmetry_equiv_pos_as_xyz
  x,y,z
  -x+1/2,-y,z+1/2
  -x,y+1/2,-z+1/2
  x+1/2,-y+1/2,-z
  z,x,y
  z+1/2,-x+1/2,-y
  -z+1/2,-x,y+1/2
  -z,x+1/2,-y+1/2
  y,z,x
  -y,z+1/2,-x+1/2
  y+1/2,-z+1/2,-x
  -y+1/2,-z,x+1/2
  -x,-y,-z
  x+1/2,y,-z+1/2
  x,-y+1/2,z+1/2
  -x+1/2,y+1/2,z
  -z,-x,-y
  -z+1/2,x+1/2,y
  z+1/2,x,-y+1/2
  z,-x+1/2,y+1/2
  -y,-z,-x
  y,-z+1/2,x+1/2
  -y+1/2,z+1/2,x
  y+1/2,z,-x+1/2
_cell_length_a                    15.4089
_cell_length_b                    15.4089
_cell_length_c                    15.4089
_cell_angle_alpha                 90.0000
_cell_angle_beta                  90.0000
_cell_angle_gamma                 90.0000
loop_
_atom_site_label
_atom_site_type_symbol
_atom_site_fract_x
_atom_site_fract_y
_atom_site_fract_z
_atom_site_U_iso_or_equiv
_atom_site_adp_type
_atom_site_occupancy
Ca0    Ca    0.11971   0.62435   0.62057   0.00000  Uiso   1.00
Ca1    Ca    0.11822   0.62661   0.14186   0.00000  Uiso   1.00
Al6    Al    0.00442   0.24286   0.22969   0.00000  Uiso   1.00
Al7    Al    0.01364   0.01915   0.25148   0.00000  Uiso   1.00
O8     O     0.00284   0.03373   0.84805   0.00000  Uiso   1.00
O9     O     0.01051   0.21305   0.62293   0.00000  Uiso   1.00
O10    O     0.00996   0.65338   0.04543   0.00000  Uiso   1.00
O11    O     0.01742   0.62959   0.26482   0.00000  Uiso   1.00
O12    O     0.09722   0.71375   0.73591   0.00000  Uiso   1.00
O13    O     0.10367   0.23789   0.78235   0.00000  Uiso   1.00
Ca2    Ca    0.13144   0.63144   0.86856   0.00000  Uiso   1.00
Ca3    Ca    0.24872   0.74872   0.75128   0.00000  Uiso   1.00
Ca4    Ca    0.00000   0.00000   0.00000   0.00000  Uiso   1.00
Ca5    Ca    0.00000   0.00000   0.50000   0.00000  Uiso   1.00
