data_21_CaO\(Al2O3)2
_audit_creation_date              2021-06-14
_audit_creation_method            'Materials Studio'
_symmetry_space_group_name_H-M    ' '
_symmetry_Int_Tables_number       0
_symmetry_cell_setting            monoclinic
loop_
_symmetry_equiv_pos_as_xyz
  x,y,z
  -y,-x,-z+1/2
  -x,-y,-z
  y,x,z+1/2
_cell_length_a                    7.8867
_cell_length_b                    7.8867
_cell_length_c                    5.4973
_cell_angle_alpha                 103.3623
_cell_angle_beta                  103.3623
_cell_angle_gamma                 69.2895
loop_
_atom_site_label
_atom_site_type_symbol
_atom_site_fract_x
_atom_site_fract_y
_atom_site_fract_z
_atom_site_U_iso_or_equiv
_atom_site_adp_type
_atom_site_occupancy
Al2    Al   -0.31977   0.55983   0.24160   0.00000  Uiso   1.00
Al3    Al    0.07755   0.24863   0.30690   0.00000  Uiso   1.00
O4     O     0.06169   0.16895   0.57295   0.00000  Uiso   1.00
O5     O    -0.13612   0.37084   0.15053   0.00000  Uiso   1.00
O6     O    -0.25290   0.63930   0.57691   0.00000  Uiso   1.00
Ca1    Ca   -0.19390   0.19390   0.75000   0.00000  Uiso   1.00
O7     O    -0.46790   0.46790   0.75000   0.00000  Uiso   1.00
