data_23_CaO\Al2O3
_audit_creation_date              2021-06-14
_audit_creation_method            'Materials Studio'
_symmetry_space_group_name_H-M    'P21/C'
_symmetry_Int_Tables_number       14
_symmetry_cell_setting            monoclinic
loop_
_symmetry_equiv_pos_as_xyz
  x,y,z
  -x,y+1/2,-z+1/2
  -x,-y,-z
  x,-y+1/2,z+1/2
_cell_length_a                    8.7828
_cell_length_b                    8.2167
_cell_length_c                    17.6533
_cell_angle_alpha                 90.0000
_cell_angle_beta                  119.5967
_cell_angle_gamma                 90.0000
loop_
_atom_site_label
_atom_site_type_symbol
_atom_site_fract_x
_atom_site_fract_y
_atom_site_fract_z
_atom_site_U_iso_or_equiv
_atom_site_adp_type
_atom_site_occupancy
Ca0    Ca    0.14965   0.03467   0.91011   0.00000  Uiso   1.00
Ca1    Ca    0.19739   0.03230   0.42975   0.00000  Uiso   1.00
Ca2    Ca    0.49183   0.54792   0.75339   0.00000  Uiso   1.00
Al3    Al    0.15347   0.66419   0.09237   0.00000  Uiso   1.00
Al4    Al    0.15335   0.22665   0.59072   0.00000  Uiso   1.00
Al5    Al    0.18424   0.72432   0.76731   0.00000  Uiso   1.00
Al6    Al    0.18678   0.17037   0.26212   0.00000  Uiso   1.00
Al7    Al    0.46740   0.72019   0.57918   0.00000  Uiso   1.00
Al8    Al    0.47892   0.16861   0.07798   0.00000  Uiso   1.00
O9     O     0.04657   0.24454   0.79715   0.00000  Uiso   1.00
O10    O     0.05261   0.23993   0.97596   0.00000  Uiso   1.00
O11    O     0.09266   0.13641   0.14868   0.00000  Uiso   1.00
O12    O     0.09347   0.03192   0.61005   0.00000  Uiso   1.00
O13    O     0.24375   0.52533   0.81214   0.00000  Uiso   1.00
O14    O     0.27254   0.74329   0.69603   0.00000  Uiso   1.00
O15    O     0.28992   0.64340   0.04539   0.00000  Uiso   1.00
O16    O     0.29073   0.64533   0.35873   0.00000  Uiso   1.00
O17    O     0.37490   0.52377   0.55275   0.00000  Uiso   1.00
O18    O     0.38469   0.22710   0.63280   0.00000  Uiso   1.00
O19    O     0.39007   0.22726   0.80585   0.00000  Uiso   1.00
O20    O     0.40883   0.24010   0.47397   0.00000  Uiso   1.00
