data_29_(CaO)12\(Al2O3)7
_audit_creation_date              2021-06-14
_audit_creation_method            'Materials Studio'
_symmetry_space_group_name_H-M    ' '
_symmetry_Int_Tables_number       0
_symmetry_cell_setting            tetragonal
loop_
_symmetry_equiv_pos_as_xyz
  x,y,z
  y-z,x-z,-z
  -y,-y+z,x-y
  -x+z,-x,-x+y
_cell_length_a                    10.4664
_cell_length_b                    10.4664
_cell_length_c                    10.4664
_cell_angle_alpha                 109.2377
_cell_angle_beta                  109.2377
_cell_angle_gamma                 109.9392
loop_
_atom_site_label
_atom_site_type_symbol
_atom_site_fract_x
_atom_site_fract_y
_atom_site_fract_z
_atom_site_U_iso_or_equiv
_atom_site_adp_type
_atom_site_occupancy
Ca1    Ca    1.37736   0.73746   0.86690   0.00000  Uiso   1.00
Ca2    Ca    0.37070   0.25759   0.38119   0.00000  Uiso   1.00
Al5    Al    0.58744   0.37408   0.24734   0.00000  Uiso   1.00
Al6    Al    1.16269   0.91079   0.28723   0.00000  Uiso   1.00
Al7    Al    0.87530   0.25125   0.87546   0.00000  Uiso   1.00
O10    O     1.02990   0.25657   0.84117   0.00000  Uiso   1.00
O11    O     0.71764   0.06207   0.72752   0.00000  Uiso   1.00
O12    O     1.24469   0.89902   0.46008   0.00000  Uiso   1.00
O13    O     0.52640   0.48054   0.16640   0.00000  Uiso   1.00
O14    O     1.11902   0.50365   0.74918   0.00000  Uiso   1.00
O15    O     1.61441   0.87871   0.87644   0.00000  Uiso   1.00
O16    O     0.60371   0.46526   0.43559   0.00000  Uiso   1.00
O17    O     1.14771   1.08051   0.37366   0.00000  Uiso   1.00
Ca3    Ca    0.17604   0.17604  -0.00000   0.00000  Uiso   1.00
Ca4    Ca    0.51232   0.01232   0.50000   0.00000  Uiso   1.00
Al8    Al    0.50000   0.50000  -0.00000   0.00000  Uiso   1.00
Al9    Al    1.25000   0.75000   0.50000   0.00000  Uiso   1.00
O18    O     0.00000   0.00000   0.00000   0.00000  Uiso   1.00
