data_35_Sillimanite
_audit_creation_date              2021-06-14
_audit_creation_method            'Materials Studio'
_symmetry_space_group_name_H-M    'PBNM'
_symmetry_Int_Tables_number       62
_symmetry_cell_setting            orthorhombic
loop_
_symmetry_equiv_pos_as_xyz
  x,y,z
  x+1/2,-y+1/2,-z
  -x,-y,z+1/2
  -x+1/2,y+1/2,-z+1/2
  -x,-y,-z
  -x+1/2,y+1/2,z
  x,y,-z+1/2
  x+1/2,-y+1/2,z+1/2
_cell_length_a                    7.4883
_cell_length_b                    7.6808
_cell_length_c                    5.7774
_cell_angle_alpha                 90.0000
_cell_angle_beta                  90.0000
_cell_angle_gamma                 90.0000
loop_
_atom_site_label
_atom_site_type_symbol
_atom_site_fract_x
_atom_site_fract_y
_atom_site_fract_z
_atom_site_U_iso_or_equiv
_atom_site_adp_type
_atom_site_occupancy
O4     O     0.12723   0.22076   0.51402   0.00705  Uani   1.00
Al1    Al    0.00000   0.00000   0.00000   0.00506  Uani   1.00
Al2    Al    0.14184   0.34381   0.25000   0.00606  Uani   1.00
O2     O     0.35682   0.43233   0.25000   0.00707  Uani   1.00
Si     Si    0.15394   0.33930   0.75000   0.00519  Uani   1.00
O1     O     0.36195   0.40707   0.75000   0.00693  Uani   1.00
O3     O     0.47599   0.00223   0.75000   0.01114  Uani   1.00
loop_
_atom_site_aniso_label
_atom_site_aniso_U_11
_atom_site_aniso_U_22
_atom_site_aniso_U_33
_atom_site_aniso_U_12
_atom_site_aniso_U_13
_atom_site_aniso_U_23
O4        0.00625   0.00747   0.00744  -0.00146   0.00000   0.00000
Al1       0.00256   0.00568   0.00693  -0.00029   0.00000  -0.00022
Al2       0.00341   0.00717   0.00761  -0.00029   0.00000   0.00000
O2        0.00341   0.00986   0.00795  -0.00117   0.00000   0.00000
Si        0.00227   0.00568   0.00761  -0.00058   0.00000   0.00000
O1        0.00341   0.00807   0.00930  -0.00146   0.00000   0.00000
O3        0.00852   0.00986   0.01505  -0.00466   0.00000   0.00000
loop_
_geom_bond_atom_site_label_1
_geom_bond_atom_site_label_2
_geom_bond_distance
_geom_bond_site_symmetry_2
_ccdc_geom_bond_type
O4     Al2     1.798   .     S
O4     Si      1.652   .     S
O4     Al1     1.947   3     S
Al1    O4      1.947   3_554 S
Al1    O4      1.947   7     S
Al1    O1      1.914   2_456 S
Al1    O1      1.914   4_545 S
Al1    O2      1.872   4_545 S
Al1    O2      1.872   2_455 S
Al2    O4      1.798   7     S
Al2    O2      1.748   .     S
Al2    O3      1.715   2_456 S
O2     Al1     1.872   4     S
O2     Al1     1.872   2     S
Si     O4      1.652   7_556 S
Si     O1      1.642   .     S
Si     O3      1.585   4_556 S
O1     Al1     1.914   2_556 S
O1     Al1     1.914   4     S
O3     Al2     1.715   2_556 S
O3     Si      1.585   4_546 S
