data_38_Nepheline
_audit_creation_date              2021-06-14
_audit_creation_method            'Materials Studio'
_symmetry_space_group_name_H-M    'P63'
_symmetry_Int_Tables_number       173
_symmetry_cell_setting            hexagonal
loop_
_symmetry_equiv_pos_as_xyz
  x,y,z
  -y,x-y,z
  -x+y,-x,z
  -x,-y,z+1/2
  y,-x+y,z+1/2
  x-y,x,z+1/2
_cell_length_a                    10.1384
_cell_length_b                    10.1384
_cell_length_c                    8.5258
_cell_angle_alpha                 90.0000
_cell_angle_beta                  90.0000
_cell_angle_gamma                 120.0000
loop_
_atom_site_label
_atom_site_type_symbol
_atom_site_fract_x
_atom_site_fract_y
_atom_site_fract_z
_atom_site_U_iso_or_equiv
_atom_site_adp_type
_atom_site_occupancy
Na2    Na    0.00800   0.45008   0.00144   0.00000  Uiso   1.00
Al3    Al    0.09306   0.33232   0.31290   0.00000  Uiso   1.00
Si5    Si    0.09374   0.33290   0.68517   0.00000  Uiso   1.00
O7     O     0.02525   0.31355   0.50693   0.00000  Uiso   1.00
O8     O     0.04171   0.77841   0.30702   0.00000  Uiso   1.00
O9     O     0.05864   0.77469   0.68275   0.00000  Uiso   1.00
O10    O     0.16100   0.50945   0.74057   0.00000  Uiso   1.00
O11    O     0.17196   0.52391   0.25893   0.00000  Uiso   1.00
K1     K     0.00000   0.00000   0.00532   0.00000  Uiso   1.00
Al4    Al    0.33333   0.66667   0.80308   0.00000  Uiso   1.00
Si6    Si    0.33333   0.66667   0.19745   0.00000  Uiso   1.00
O12    O     0.33333   0.66667   0.00704   0.00000  Uiso   1.00
loop_
_geom_bond_atom_site_label_1
_geom_bond_atom_site_label_2
_geom_bond_distance
_geom_bond_site_symmetry_2
_ccdc_geom_bond_type
Al3    O7      1.765   .     S
Al3    O11     1.752   .     S
Al3    O8      1.761   2_665 S
Al3    O9      1.762   4_564 S
Si5    O7      1.641   .     S
Si5    O10     1.634   .     S
Si5    O9      1.639   2_665 S
Si5    O8      1.640   4_565 S
O8     Al3     1.761   3_565 S
O8     Si5     1.640   4_564 S
O9     Al3     1.762   4_565 S
O9     Si5     1.639   3_565 S
O10    Al4     1.759   .     S
O11    Si6     1.637   .     S
Al4    O10     1.759   2_665 S
Al4    O10     1.759   3_565 S
Al4    O12     1.739   1_556 S
Si6    O11     1.637   2_665 S
Si6    O11     1.637   3_565 S
Si6    O12     1.623   .     S
O12    Al4     1.739   1_554 S
