data_3_Berlinite
_audit_creation_date              2021-06-15
_audit_creation_method            'Materials Studio'
_symmetry_space_group_name_H-M    ' '
_symmetry_Int_Tables_number       0
_symmetry_cell_setting            trigonal
loop_
_symmetry_equiv_pos_as_xyz
  x,y,z
  y,x,-z+1/3
  -y,x-y,z+2/3
  -x,-x+y,-z
  -x+y,-x,z+1/3
  x-y,-y,-z+2/3
_cell_length_a                    4.9438
_cell_length_b                    4.9438
_cell_length_c                    10.9498
_cell_angle_alpha                 90.0000
_cell_angle_beta                  90.0000
_cell_angle_gamma                 120.0000
loop_
_atom_site_label
_atom_site_type_symbol
_atom_site_fract_x
_atom_site_fract_y
_atom_site_fract_z
_atom_site_U_iso_or_equiv
_atom_site_adp_type
_atom_site_occupancy
O1     O     0.41351   0.29599   0.27114   0.01442  Uani   1.00
O2     O     0.41295   0.26244   0.78500   0.01425  Uani   1.00
Al     Al    0.46384   0.00000   0.33333   0.00791  Uani   1.00
P      P     0.46429   0.00000   0.83333   0.00787  Uani   1.00
loop_
_atom_site_aniso_label
_atom_site_aniso_U_11
_atom_site_aniso_U_22
_atom_site_aniso_U_33
_atom_site_aniso_U_12
_atom_site_aniso_U_13
_atom_site_aniso_U_23
O1        0.01983   0.01346   0.01342   0.01091   0.00314   0.00461
O2        0.01900   0.01295   0.01470   0.01091   0.00447   0.00447
Al        0.00871   0.00687   0.00753   0.00343   0.00010   0.00021
P         0.00892   0.00654   0.00735   0.00327   0.00016   0.00033
