data_42_Muscovite
_audit_creation_date              2021-06-14
_audit_creation_method            'Materials Studio'
_symmetry_space_group_name_H-M    'P2/C'
_symmetry_Int_Tables_number       13
_symmetry_cell_setting            monoclinic
loop_
_symmetry_equiv_pos_as_xyz
  x,y,z
  -x,y,-z+1/2
  -x,-y,-z
  x,-y,z+1/2
_cell_length_a                    5.2335
_cell_length_b                    9.0865
_cell_length_c                    20.4401
_cell_angle_alpha                 90.0000
_cell_angle_beta                  95.6415
_cell_angle_gamma                 90.0000
loop_
_atom_site_label
_atom_site_type_symbol
_atom_site_fract_x
_atom_site_fract_y
_atom_site_fract_z
_atom_site_U_iso_or_equiv
_atom_site_adp_type
_atom_site_occupancy
Al3    Al    0.03716   0.26033   0.86499   0.00000  Uiso   1.00
Al4    Al    0.24741   0.41559   0.99902   0.00000  Uiso   1.00
Al5    Al    0.25148   0.08608   0.99872   0.00000  Uiso   1.00
Si6    Si    0.03950   0.06964   0.36566   0.00000  Uiso   1.00
Si7    Si    0.44860   0.24321   0.13341   0.00000  Uiso   1.00
Si8    Si    0.48176   0.43101   0.63510   0.00000  Uiso   1.00
H9     H     0.13677   0.34281   0.44635   0.00000  Uiso   1.00
H10    H     0.37634   0.14415   0.56719   0.00000  Uiso   1.00
O11    O     0.03668   0.05597   0.44579   0.00000  Uiso   1.00
O12    O     0.04501   0.43415   0.45196   0.00000  Uiso   1.00
O13    O     0.08394   0.08527   0.83052   0.00000  Uiso   1.00
O14    O     0.12488   0.25029   0.95007   0.00000  Uiso   1.00
O15    O     0.23463   0.38886   0.83108   0.00000  Uiso   1.00
O16    O     0.24157   0.13634   0.16619   0.00000  Uiso   1.00
O17    O     0.25673   0.18817   0.34377   0.00000  Uiso   1.00
O18    O     0.28364   0.30717   0.65614   0.00000  Uiso   1.00
O19    O     0.39120   0.24824   0.05402   0.00000  Uiso   1.00
O20    O     0.41387   0.40559   0.16622   0.00000  Uiso   1.00
O21    O     0.45438   0.05825   0.54883   0.00000  Uiso   1.00
O22    O     0.46751   0.45049   0.55431   0.00000  Uiso   1.00
K1     K     0.00000   0.40216   0.25000   0.00000  Uiso   1.00
K2     K     0.50000   0.10297   0.75000   0.00000  Uiso   1.00
