data_49_Kyanite
_audit_creation_date              2021-06-14
_audit_creation_method            'Materials Studio'
_symmetry_space_group_name_H-M    'P-1'
_symmetry_Int_Tables_number       2
_symmetry_cell_setting            triclinic
loop_
_symmetry_equiv_pos_as_xyz
  x,y,z
  -x,-y,-z
_cell_length_a                    5.5848
_cell_length_b                    7.1396
_cell_length_c                    7.8720
_cell_angle_alpha                 74.0021
_cell_angle_beta                  90.0043
_cell_angle_gamma                 78.8890
loop_
_atom_site_label
_atom_site_type_symbol
_atom_site_fract_x
_atom_site_fract_y
_atom_site_fract_z
_atom_site_U_iso_or_equiv
_atom_site_adp_type
_atom_site_occupancy
Al1    Al    0.04964   0.29684   0.30131   0.00000  Uiso   1.00
Al2    Al    0.16455   0.88846   0.91700   0.00000  Uiso   1.00
Al3    Al    0.35981   0.09930   0.61367   0.00000  Uiso   1.00
Al4    Al    0.45813   0.67500   0.70404   0.00000  Uiso   1.00
Si5    Si    0.18892   0.70895   0.33170   0.00000  Uiso   1.00
Si6    Si    0.29318   0.29634   0.93505   0.00000  Uiso   1.00
O7     O     0.04611   0.27491   0.54525   0.00000  Uiso   1.00
O8     O     0.06385   0.28351   0.06475   0.00000  Uiso   1.00
O9     O     0.12849   0.89134   0.14668   0.00000  Uiso   1.00
O10    O     0.18065   0.87782   0.68456   0.00000  Uiso   1.00
O11    O     0.24366   0.50189   0.76845   0.00000  Uiso   1.00
O12    O     0.24400   0.49882   0.27484   0.00000  Uiso   1.00
O13    O     0.33383   0.10786   0.84778   0.00000  Uiso   1.00
O14    O     0.36076   0.12121   0.36911   0.00000  Uiso   1.00
O15    O     0.42930   0.71732   0.44570   0.00000  Uiso   1.00
O16    O     0.46544   0.70827   0.94631   0.00000  Uiso   1.00
