data_59_beta-NaAlO2
_audit_creation_date              2021-06-16
_audit_creation_method            'Materials Studio'
_symmetry_space_group_name_H-M    'PNA21'
_symmetry_Int_Tables_number       33
_symmetry_cell_setting            orthorhombic
loop_
_symmetry_equiv_pos_as_xyz
  x,y,z
  -x,-y,z+1/2
  x+1/2,-y+1/2,z
  -x+1/2,y+1/2,z+1/2
_cell_length_a                    5.4647
_cell_length_b                    7.0633
_cell_length_c                    5.2858
_cell_angle_alpha                 90.0000
_cell_angle_beta                  90.0000
_cell_angle_gamma                 90.0000
loop_
_atom_site_label
_atom_site_type_symbol
_atom_site_fract_x
_atom_site_fract_y
_atom_site_fract_z
_atom_site_U_iso_or_equiv
_atom_site_adp_type
_atom_site_occupancy
Na1    Na    0.06984   0.62271   0.98514   0.00000  Uiso   1.00
Al2    Al    0.06101   0.12589   0.00045   0.00000  Uiso   1.00
O3     O     0.03279   0.07755   0.32951   0.00000  Uiso   1.00
O4     O     0.12548   0.67361   0.42931   0.00000  Uiso   1.00
loop_
_geom_bond_atom_site_label_1
_geom_bond_atom_site_label_2
_geom_bond_distance
_geom_bond_site_symmetry_2
_ccdc_geom_bond_type
Al2    O3      1.779   .     S
Al2    O4      1.786   4_544 S
Al2    O4      1.785   2_564 S
Al2    O3      1.773   2_554 S
O3     Al2     1.773   2     S
O4     Al2     1.786   4     S
O4     Al2     1.785   2_565 S
