data_65_KAlO2
_audit_creation_date              2021-06-16
_audit_creation_method            'Materials Studio'
_symmetry_space_group_name_H-M    'PBCA'
_symmetry_Int_Tables_number       61
_symmetry_cell_setting            orthorhombic
loop_
_symmetry_equiv_pos_as_xyz
  x,y,z
  -x+1/2,-y,z+1/2
  -x,y+1/2,-z+1/2
  x+1/2,-y+1/2,-z
  -x,-y,-z
  x+1/2,y,-z+1/2
  x,-y+1/2,z+1/2
  -x+1/2,y+1/2,z
_cell_length_a                    5.4988
_cell_length_b                    11.0373
_cell_length_c                    15.6350
_cell_angle_alpha                 90.0000
_cell_angle_beta                  90.0000
_cell_angle_gamma                 90.0000
loop_
_atom_site_label
_atom_site_type_symbol
_atom_site_fract_x
_atom_site_fract_y
_atom_site_fract_z
_atom_site_U_iso_or_equiv
_atom_site_adp_type
_atom_site_occupancy
K0     K     0.20470   0.73892   0.81474   0.00000  Uiso   1.00
K1     K     0.24669   0.50718   0.43805   0.00000  Uiso   1.00
Al2    Al    0.22042   0.73762   0.56355   0.00000  Uiso   1.00
Al3    Al    0.24517   0.50823   0.18851   0.00000  Uiso   1.00
O4     O     0.05066   0.01495   0.77784   0.00000  Uiso   1.00
O5     O     0.06931   0.21476   0.98402   0.00000  Uiso   1.00
O6     O     0.17723   0.09634   0.60528   0.00000  Uiso   1.00
O7     O     0.20070   0.65769   0.14933   0.00000  Uiso   1.00
