data_66_BaAl2O4
_audit_creation_date              2021-06-16
_audit_creation_method            'Materials Studio'
_symmetry_space_group_name_H-M    'P63'
_symmetry_Int_Tables_number       173
_symmetry_cell_setting            hexagonal
loop_
_symmetry_equiv_pos_as_xyz
  x,y,z
  -y,x-y,z
  -x+y,-x,z
  -x,-y,z+1/2
  y,-x+y,z+1/2
  x-y,x,z+1/2
_cell_length_a                    10.5847
_cell_length_b                    10.5847
_cell_length_c                    8.8741
_cell_angle_alpha                 90.0000
_cell_angle_beta                  90.0000
_cell_angle_gamma                 120.0000
loop_
_atom_site_label
_atom_site_type_symbol
_atom_site_fract_x
_atom_site_fract_y
_atom_site_fract_z
_atom_site_U_iso_or_equiv
_atom_site_adp_type
_atom_site_occupancy
Ba0    Ba    0.00866   0.50090   0.75749   0.00000  Uiso   1.00
Al2    Al    0.15332   0.32829   0.45099   0.00000  Uiso   1.00
Al3    Al    0.15440   0.33077   0.06469   0.00000  Uiso   1.00
O6     O     0.00071   0.68800   0.04842   0.00000  Uiso   1.00
O7     O     0.00239   0.18107   0.98025   0.00000  Uiso   1.00
O8     O     0.10945   0.32150   0.25787   0.00000  Uiso   1.00
O9     O     0.18022   0.50058   0.00165   0.00000  Uiso   1.00
O10    O     0.18290   0.68557   0.48908   0.00000  Uiso   1.00
Ba1    Ba    0.00000   0.00000   0.24959   0.00000  Uiso   1.00
Al4    Al    0.33333   0.66667   0.54612   0.00000  Uiso   1.00
Al5    Al    0.33333   0.66667   0.94731   0.00000  Uiso   1.00
O11    O     0.33333   0.66667   0.74663   0.00000  Uiso   1.00
