data_67_delta-Al(OH)3
_audit_creation_date              2021-06-16
_audit_creation_method            'Materials Studio'
_symmetry_space_group_name_H-M    'P212121'
_symmetry_Int_Tables_number       19
_symmetry_cell_setting            orthorhombic
loop_
_symmetry_equiv_pos_as_xyz
  x,y,z
  -x+1/2,-y,z+1/2
  -x,y+1/2,-z+1/2
  x+1/2,-y+1/2,-z
_cell_length_a                    5.0780
_cell_length_b                    5.1357
_cell_length_c                    7.2506
_cell_angle_alpha                 90.0000
_cell_angle_beta                  90.0000
_cell_angle_gamma                 90.0000
loop_
_atom_site_label
_atom_site_type_symbol
_atom_site_fract_x
_atom_site_fract_y
_atom_site_fract_z
_atom_site_U_iso_or_equiv
_atom_site_adp_type
_atom_site_occupancy
Al1    Al    0.24771  -0.00046   0.49969   0.00000  Uiso   1.00
H2     H     0.03377   0.20267   0.75340   0.00000  Uiso   1.00
H3     H     0.08066   0.33137   0.29707   0.00000  Uiso   1.00
H4     H     0.21582   0.46075   0.01908   0.00000  Uiso   1.00
O5     O     0.07389   0.31981   0.43599   0.00000  Uiso   1.00
O6     O     0.08559   0.32252   0.05887   0.00000  Uiso   1.00
O7     O     0.13315   0.03624   0.75016   0.00000  Uiso   1.00
