data_68_delta-AlOOH
_audit_creation_date              2021-06-16
_audit_creation_method            'Materials Studio'
_symmetry_space_group_name_H-M    'P21NM'
_symmetry_Int_Tables_number       31
_symmetry_cell_setting            orthorhombic
loop_
_symmetry_equiv_pos_as_xyz
  x,y,z
  x+1/2,-y,-z+1/2
  x+1/2,-y,z+1/2
  x,y,-z
_cell_length_a                    4.7128
_cell_length_b                    4.2221
_cell_length_c                    2.8315
_cell_angle_alpha                 90.0000
_cell_angle_beta                  90.0000
_cell_angle_gamma                 90.0000
loop_
_atom_site_label
_atom_site_type_symbol
_atom_site_fract_x
_atom_site_fract_y
_atom_site_fract_z
_atom_site_U_iso_or_equiv
_atom_site_adp_type
_atom_site_occupancy
Al1    Al    0.00791   0.26913   0.00000   0.00298  Uani   1.00
O1     O     0.35439   0.49386   0.00000   0.00330  Uani   1.00
O2     O     0.65222   0.00439   0.00000   0.00357  Uani   1.00
H1     H     0.52007   0.21001   0.00000   0.00043  Uiso   1.00
loop_
_atom_site_aniso_label
_atom_site_aniso_U_11
_atom_site_aniso_U_22
_atom_site_aniso_U_33
_atom_site_aniso_U_12
_atom_site_aniso_U_13
_atom_site_aniso_U_23
Al1       0.00333   0.00324   0.00238   0.00001   0.00000   0.00000
O1        0.00330   0.00350   0.00310  -0.00084   0.00000   0.00000
O2        0.00370   0.00300   0.00400   0.00001   0.00000   0.00000
