data_78_Pyrophyllite\dehydroxylate
_audit_creation_date              2021-06-16
_audit_creation_method            'Materials Studio'
_symmetry_space_group_name_H-M    'C-1'
_symmetry_Int_Tables_number       0
_symmetry_cell_setting            triclinic
loop_
_symmetry_equiv_pos_as_xyz
  x,y,z
  -x,-y,-z
  x+1/2,y+1/2,z
  -x+1/2,-y+1/2,-z
_cell_length_a                    5.1913
_cell_length_b                    9.1224
_cell_length_c                    9.4990
_cell_angle_alpha                 91.1700
_cell_angle_beta                  100.2100
_cell_angle_gamma                 88.6200
loop_
_atom_site_label
_atom_site_type_symbol
_atom_site_fract_x
_atom_site_fract_y
_atom_site_fract_z
_atom_site_U_iso_or_equiv
_atom_site_adp_type
_atom_site_occupancy
Al1    Al    0.53147   0.15632   0.00008   0.01267  Uiso   1.00
Si1    Si    0.23112   0.49331   0.29424   0.01267  Uiso   1.00
Si2    Si    0.76281   0.31658   0.29526   0.01267  Uiso   1.00
O2     O     0.10704   0.50446   0.12357   0.01267  Uiso   1.00
O3     O     0.76101   0.28631   0.12408   0.01267  Uiso   1.00
O4     O     0.04029   0.38923   0.36470   0.01267  Uiso   1.00
O5     O     0.73491   0.15748   0.36481   0.01267  Uiso   1.00
O6     O     0.52576   0.42596   0.32097   0.01267  Uiso   1.00
O1     O     0.25000   0.25000   0.00000   0.01267  Uiso   1.00
