data_79_9Al2O3\2B2O3
_audit_creation_date              2021-06-16
_audit_creation_method            'Materials Studio'
_symmetry_space_group_name_H-M    ' '
_symmetry_Int_Tables_number       0
_symmetry_cell_setting            orthorhombic
loop_
_symmetry_equiv_pos_as_xyz
  x,y,z
  -x,-y,z+1/2
  -y,-x,z+1/2
  y,x,z
_cell_length_a                    8.0306
_cell_length_b                    8.0306
_cell_length_c                    7.7117
_cell_angle_alpha                 90.0000
_cell_angle_beta                  90.0000
_cell_angle_gamma                 41.6151
loop_
_atom_site_label
_atom_site_type_symbol
_atom_site_fract_x
_atom_site_fract_y
_atom_site_fract_z
_atom_site_U_iso_or_equiv
_atom_site_adp_type
_atom_site_occupancy
Al1    Al    0.63251   0.13620  -0.00007   0.01267  Uiso   1.00
O1     O     0.25713  -0.16233   0.28732   0.01900  Uiso   1.00
O2     O     0.55230   0.06694   0.19909   0.01773  Uiso   1.00
B      B     0.01506   0.01506   0.22278   0.01900  Uiso   1.00
Al4    Al    0.29727   0.29727   0.33264   0.01267  Uiso   1.00
O4     O     0.19135   0.19135   0.43566   0.01393  Uiso   1.00
O6     O     0.45449   0.45449   0.07364   0.01646  Uiso   1.00
Al2    Al    0.74442  -0.25558   0.18236   0.01773  Uiso   1.00
Al3    Al    0.55665  -0.44335   0.18640   0.01520  Uiso   1.00
O3     O     0.64731  -0.35269   0.03624   0.02026  Uiso   1.00
O5     O     0.66827  -0.33173   0.36604   0.01773  Uiso   1.00
O7     O     0.95337  -0.04663   0.09355   0.01140  Uiso   1.00
