data_83_Chiolite
_audit_creation_date              2021-06-16
_audit_creation_method            'Materials Studio'
_symmetry_space_group_name_H-M    'P1'
_symmetry_Int_Tables_number       1
_symmetry_cell_setting            triclinic
loop_
_symmetry_equiv_pos_as_xyz
  x,y,z
_cell_length_a                    7.1176
_cell_length_b                    7.1176
_cell_length_c                    10.5616
_cell_angle_alpha                 90.0000
_cell_angle_beta                  90.0000
_cell_angle_gamma                 90.0000
loop_
_atom_site_label
_atom_site_type_symbol
_atom_site_fract_x
_atom_site_fract_y
_atom_site_fract_z
_atom_site_U_iso_or_equiv
_atom_site_adp_type
_atom_site_occupancy
Na0    Na    0.00000  -0.00000   0.50000   0.00000  Uiso   1.00
Na1    Na    0.50000   0.50000  -0.00000   0.00000  Uiso   1.00
Na2    Na    0.27517   0.77517   0.25000   0.00000  Uiso   1.00
Na3    Na    0.22483   0.27517   0.25000   0.00000  Uiso   1.00
Na4    Na    0.77517   0.72483   0.25000   0.00000  Uiso   1.00
Na5    Na    0.72483   0.22483   0.25000   0.00000  Uiso   1.00
Na6    Na    0.27517   0.77517   0.75000   0.00000  Uiso   1.00
Na7    Na    0.22483   0.27517   0.75000   0.00000  Uiso   1.00
Na8    Na    0.77517   0.72483   0.75000   0.00000  Uiso   1.00
Na9    Na    0.72483   0.22483   0.75000   0.00000  Uiso   1.00
Al10   Al    0.00000  -0.00000   0.00000   0.00000  Uiso   1.00
Al11   Al    0.50000   0.50000   0.50000   0.00000  Uiso   1.00
Al12   Al    0.00000   0.50000   0.00000   0.00000  Uiso   1.00
Al13   Al    0.50000  -0.00000   0.00000   0.00000  Uiso   1.00
Al14   Al    0.50000  -0.00000   0.50000   0.00000  Uiso   1.00
Al15   Al    0.00000   0.50000   0.50000   0.00000  Uiso   1.00
F16    F     0.03475   0.67985   0.62003   0.00000  Uiso   1.00
F17    F     0.96525   0.32015   0.62003   0.00000  Uiso   1.00
F18    F     0.17985   0.53475   0.87996   0.00000  Uiso   1.00
F19    F     0.67985   0.96525   0.62003   0.00000  Uiso   1.00
F20    F     0.32015   0.03475   0.62003   0.00000  Uiso   1.00
F21    F     0.46525   0.17985   0.87996   0.00000  Uiso   1.00
F22    F     0.53475   0.82015   0.87997   0.00000  Uiso   1.00
F23    F     0.82015   0.46525   0.87997   0.00000  Uiso   1.00
F24    F     0.96525   0.32015   0.37997   0.00000  Uiso   1.00
F25    F     0.03475   0.67985   0.37997   0.00000  Uiso   1.00
F26    F     0.82015   0.46525   0.12003   0.00000  Uiso   1.00
F27    F     0.32015   0.03475   0.37997   0.00000  Uiso   1.00
F28    F     0.67985   0.96525   0.37997   0.00000  Uiso   1.00
F29    F     0.53475   0.82015   0.12003   0.00000  Uiso   1.00
F30    F     0.46525   0.17985   0.12003   0.00000  Uiso   1.00
F31    F     0.17985   0.53475   0.12003   0.00000  Uiso   1.00
F32    F     0.00000  -0.00000   0.17127   0.00000  Uiso   1.00
F33    F     0.50000   0.50000   0.32873   0.00000  Uiso   1.00
F34    F     0.00000   0.00000   0.82873   0.00000  Uiso   1.00
F35    F     0.50000   0.50000   0.67127   0.00000  Uiso   1.00
F36    F     0.06329   0.24789  -0.00000   0.00000  Uiso   1.00
F37    F     0.75211   0.06329  -0.00000   0.00000  Uiso   1.00
F38    F     0.24789   0.93671  -0.00000   0.00000  Uiso   1.00
F39    F     0.56329   0.25211   0.50000   0.00000  Uiso   1.00
F40    F     0.43671   0.74789   0.50000   0.00000  Uiso   1.00
F41    F     0.93671   0.75211  -0.00000   0.00000  Uiso   1.00
F42    F     0.74789   0.56329   0.50000   0.00000  Uiso   1.00
F43    F     0.25211   0.43671   0.50000   0.00000  Uiso   1.00
