data_86_beta-aluminum\fluoride
_audit_creation_date              2021-06-16
_audit_creation_method            'Materials Studio'
_symmetry_space_group_name_H-M    ' '
_symmetry_Int_Tables_number       0
_symmetry_cell_setting            orthorhombic
loop_
_symmetry_equiv_pos_as_xyz
  x,y,z
  -x,-y,z+1/2
  y,x,-z+1/2
  -y,-x,-z
  -x,-y,-z
  x,y,-z+1/2
  -y,-x,z+1/2
  y,x,z
_cell_length_a                    7.0126
_cell_length_b                    7.0126
_cell_length_c                    7.2353
_cell_angle_alpha                 90.0000
_cell_angle_beta                  90.0000
_cell_angle_gamma                 60.0689
loop_
_atom_site_label
_atom_site_type_symbol
_atom_site_fract_x
_atom_site_fract_y
_atom_site_fract_z
_atom_site_U_iso_or_equiv
_atom_site_adp_type
_atom_site_occupancy
F3     F     0.57732   0.21139   0.00273   0.00000  Uiso   1.00
Al1    Al    0.50000   0.00000   0.00000   0.00000  Uiso   1.00
Al2    Al    0.50000   0.50000   0.00000   0.00000  Uiso   1.00
F4     F     0.21131   0.21131   0.50380   0.00000  Uiso   1.00
F5     F     0.49470   0.00098   0.25000   0.00000  Uiso   1.00
F6     F     0.49758   0.49758   0.75000   0.00000  Uiso   1.00
