data_87_Cryolite
_audit_creation_date              2021-06-16
_audit_creation_method            'Materials Studio'
_symmetry_space_group_name_H-M    'P21/C'
_symmetry_Int_Tables_number       14
_symmetry_cell_setting            monoclinic
loop_
_symmetry_equiv_pos_as_xyz
  x,y,z
  -x,y+1/2,-z+1/2
  -x,-y,-z
  x,-y+1/2,z+1/2
_cell_length_a                    5.4728
_cell_length_b                    5.6811
_cell_length_c                    9.5817
_cell_angle_alpha                 90.0000
_cell_angle_beta                  124.6237
_cell_angle_gamma                 90.0000
loop_
_atom_site_label
_atom_site_type_symbol
_atom_site_fract_x
_atom_site_fract_y
_atom_site_fract_z
_atom_site_U_iso_or_equiv
_atom_site_adp_type
_atom_site_occupancy
Na1    Na    0.27131   0.05168   0.75604   0.00000  Uiso   1.00
F4     F     0.11013   0.05155   0.21689   0.00000  Uiso   1.00
F5     F     0.23350   0.73584   0.06856   0.00000  Uiso   1.00
F6     F     0.31592   0.17526   0.04528   0.00000  Uiso   1.00
Na2    Na    0.50000   0.00000   0.50000   0.00000  Uiso   1.00
Al3    Al    0.00000   0.00000   0.00000   0.00000  Uiso   1.00
