data_88_Elpasolite
_audit_creation_date              2021-06-16
_audit_creation_method            'Materials Studio'
_symmetry_space_group_name_H-M    ' '
_symmetry_Int_Tables_number       0
_symmetry_cell_setting            cubic
loop_
_symmetry_equiv_pos_as_xyz
  x,y,z
  y,x,-x-y-z
  z,-x-y-z,x
  -x-y-z,z,y
  z,x,y
  -x-y-z,y,x
  x,z,-x-y-z
  y,-x-y-z,z
  y,z,x
  x,-x-y-z,y
  -x-y-z,x,z
  z,y,-x-y-z
  -x,-y,x+y+z
  -y,-x,-z
  -z,x+y+z,-y
  x+y+z,-z,-x
  -z,-x,x+y+z
  x+y+z,-y,-z
  -x,-z,-y
  -y,x+y+z,-x
  -y,-z,x+y+z
  -x,x+y+z,-z
  x+y+z,-x,-y
  -z,-y,-x
  -x,-y,-z
  -y,-x,x+y+z
  -z,x+y+z,-x
  x+y+z,-z,-y
  -z,-x,-y
  x+y+z,-y,-x
  -x,-z,x+y+z
  -y,x+y+z,-z
  -y,-z,-x
  -x,x+y+z,-y
  x+y+z,-x,-z
  -z,-y,x+y+z
  x,y,-x-y-z
  y,x,z
  z,-x-y-z,y
  -x-y-z,z,x
  z,x,-x-y-z
  -x-y-z,y,z
  x,z,y
  y,-x-y-z,x
  y,z,-x-y-z
  x,-x-y-z,z
  -x-y-z,x,y
  z,y,x
_cell_length_a                    5.8361
_cell_length_b                    5.8361
_cell_length_c                    5.8361
_cell_angle_alpha                 60.0000
_cell_angle_beta                  60.0000
_cell_angle_gamma                 60.0000
loop_
_atom_site_label
_atom_site_type_symbol
_atom_site_fract_x
_atom_site_fract_y
_atom_site_fract_z
_atom_site_U_iso_or_equiv
_atom_site_adp_type
_atom_site_occupancy
K1     K     0.25000   0.25000   0.25000   0.00000  Uiso   1.00
Na2    Na    0.50000   0.50000  -0.50000   0.00000  Uiso   1.00
Al3    Al    0.00000   0.00000   0.00000   0.00000  Uiso   1.00
F4     F     0.22169   0.22169  -0.22169   0.00000  Uiso   1.00
