data_8_Al2Ge2O7
_audit_creation_date              2021-06-15
_audit_creation_method            'Materials Studio'
_symmetry_space_group_name_H-M    ' '
_symmetry_Int_Tables_number       0
_symmetry_cell_setting            monoclinic
loop_
_symmetry_equiv_pos_as_xyz
  x,y,z
  -y,-x,-z+1/2
  -x,-y,-z
  y,x,z+1/2
_cell_length_a                    5.3434
_cell_length_b                    5.3434
_cell_length_c                    9.8132
_cell_angle_alpha                 103.8968
_cell_angle_beta                  103.8968
_cell_angle_gamma                 94.1348
loop_
_atom_site_label
_atom_site_type_symbol
_atom_site_fract_x
_atom_site_fract_y
_atom_site_fract_z
_atom_site_U_iso_or_equiv
_atom_site_adp_type
_atom_site_occupancy
Al1    Al   -0.25467   0.59062   0.47740   0.00000  Uiso   1.00
Ge2    Ge   -0.01005   0.48444   0.79360   0.00000  Uiso   1.00
O3     O    -0.31268   0.51550   0.10013   0.00000  Uiso   1.00
O4     O    -0.01355   0.44370   0.37251   0.00000  Uiso   1.00
O5     O     0.15439   0.28880   0.10658   0.00000  Uiso   1.00
O6     O    -0.16098   0.16098   0.75000   0.00000  Uiso   1.00
