data_91_Microcline
_audit_creation_date              2021-06-16
_audit_creation_method            'Materials Studio'
_symmetry_space_group_name_H-M    'P1'
_symmetry_Int_Tables_number       1
_symmetry_cell_setting            triclinic
loop_
_symmetry_equiv_pos_as_xyz
  x,y,z
_cell_length_a                    7.3259
_cell_length_b                    7.7228
_cell_length_c                    8.0273
_cell_angle_alpha                 112.9121
_cell_angle_beta                  104.4521
_cell_angle_gamma                 103.4940
loop_
_atom_site_label
_atom_site_type_symbol
_atom_site_fract_x
_atom_site_fract_y
_atom_site_fract_z
_atom_site_U_iso_or_equiv
_atom_site_adp_type
_atom_site_occupancy
K0     K     0.86225   0.70875   0.72498   0.00000  Uiso   1.00
K1     K     0.13774   0.29125   0.27502   0.00000  Uiso   1.00
Al2    Al    0.78236   0.17673   0.79998   0.00000  Uiso   1.00
Al3    Al    0.21764   0.82327   0.20002   0.00000  Uiso   1.00
Si4    Si    0.76755   0.80728   0.17005   0.00000  Uiso   1.00
Si5    Si    0.23245   0.19272   0.82995   0.00000  Uiso   1.00
Si6    Si    0.65938   0.40660   0.16568   0.00000  Uiso   1.00
Si7    Si    0.34062   0.59340   0.83432   0.00000  Uiso   1.00
Si8    Si    0.64783   0.17661   0.40554   0.00000  Uiso   1.00
Si9    Si    0.35217   0.82339   0.59446   0.00000  Uiso   1.00
O10    O     0.01767   0.14574   0.85485   0.00000  Uiso   1.00
O11    O     0.98233   0.85426   0.14515   0.00000  Uiso   1.00
O12    O     0.71399   0.36582   0.35499   0.00000  Uiso   1.00
O13    O     0.28601   0.63418   0.64501   0.00000  Uiso   1.00
O14    O     0.77861   0.32472   0.02859   0.00000  Uiso   1.00
O15    O     0.22139   0.67528   0.97141   0.00000  Uiso   1.00
O16    O     0.75833   0.02189   0.30966   0.00000  Uiso   1.00
O17    O     0.24167   0.97811   0.69034   0.00000  Uiso   1.00
O18    O     0.74694   0.28206   0.64157   0.00000  Uiso   1.00
O19    O     0.25306   0.71794   0.35843   0.00000  Uiso   1.00
O20    O     0.73023   0.65460   0.26513   0.00000  Uiso   1.00
O21    O     0.26977   0.34540   0.73487   0.00000  Uiso   1.00
O22    O     0.59602   0.93241   0.68836   0.00000  Uiso   1.00
O23    O     0.40398   0.06759   0.31164   0.00000  Uiso   1.00
O24    O     0.58867   0.69781   0.95012   0.00000  Uiso   1.00
O25    O     0.41133   0.30219   0.04988   0.00000  Uiso   1.00
