data_92_Berlinite
_audit_creation_date              2021-06-16
_audit_creation_method            'Materials Studio'
_symmetry_space_group_name_H-M    'P1'
_symmetry_Int_Tables_number       1
_symmetry_cell_setting            triclinic
loop_
_symmetry_equiv_pos_as_xyz
  x,y,z
_cell_length_a                    5.0550
_cell_length_b                    5.0550
_cell_length_c                    11.1644
_cell_angle_alpha                 90.0000
_cell_angle_beta                  90.0000
_cell_angle_gamma                 120.0000
loop_
_atom_site_label
_atom_site_type_symbol
_atom_site_fract_x
_atom_site_fract_y
_atom_site_fract_z
_atom_site_U_iso_or_equiv
_atom_site_adp_type
_atom_site_occupancy
Al0    Al    0.47265  -0.00000   0.66667   0.00000  Uiso   1.00
Al1    Al   -0.00000   0.47265   0.33333   0.00000  Uiso   1.00
Al2    Al    0.52735   0.52735   0.00000   0.00000  Uiso   1.00
P3     P     0.47337  -0.00000   0.16667   0.00000  Uiso   1.00
P4     P    -0.00000   0.47337   0.83333   0.00000  Uiso   1.00
P5     P     0.52663   0.52663   0.50000   0.00000  Uiso   1.00
O6     O     0.16990   0.75263   0.22157   0.00000  Uiso   1.00
O7     O     0.24737   0.41727   0.88824   0.00000  Uiso   1.00
O8     O     0.58274   0.83011   0.55491   0.00000  Uiso   1.00
O9     O     0.41727   0.24737   0.11176   0.00000  Uiso   1.00
O10    O     0.83011   0.58274   0.44509   0.00000  Uiso   1.00
O11    O     0.75263   0.16990   0.77843   0.00000  Uiso   1.00
O12    O     0.71972   0.13660   0.26523   0.00000  Uiso   1.00
O13    O     0.86339   0.58312   0.93190   0.00000  Uiso   1.00
O14    O     0.41688   0.28028   0.59856   0.00000  Uiso   1.00
O15    O     0.58312   0.86339   0.06810   0.00000  Uiso   1.00
O16    O     0.28028   0.41688   0.40144   0.00000  Uiso   1.00
O17    O     0.13660   0.71972   0.73477   0.00000  Uiso   1.00
