data_95_Euclase
_audit_creation_date              2021-06-16
_audit_creation_method            'Materials Studio'
_symmetry_space_group_name_H-M    'P21/A'
_symmetry_Int_Tables_number       14
_symmetry_cell_setting            monoclinic
loop_
_symmetry_equiv_pos_as_xyz
  x,y,z
  -x+1/2,y+1/2,-z
  -x,-y,-z
  x+1/2,-y+1/2,z
_cell_length_a                    4.7800
_cell_length_b                    14.3220
_cell_length_c                    4.6335
_cell_angle_alpha                 90.0000
_cell_angle_beta                  100.3100
_cell_angle_gamma                 90.0000
loop_
_atom_site_label
_atom_site_type_symbol
_atom_site_fract_x
_atom_site_fract_y
_atom_site_fract_z
_atom_site_U_iso_or_equiv
_atom_site_adp_type
_atom_site_occupancy
Si     Si    0.17693   0.10025   0.53588   0.00494  Uiso   1.00
Al     Al    0.24802   0.44432   0.95759   0.00570  Uiso   1.00
Be     Be    0.17251   0.30082   0.45496   0.00760  Uiso   1.00
O1     O     0.38165   0.03133   0.76201   0.00659  Uiso   1.00
O2     O     0.37688   0.37701   0.64997   0.00633  Uiso   1.00
O3     O     0.34487   0.20062   0.52876   0.00671  Uiso   1.00
O4     O     0.10198   0.05392   0.20802   0.00633  Uiso   1.00
O5     O     0.15679   0.33037   0.11804   0.00899  Uiso   1.00
H      H     0.01955   0.29413  -0.01823   0.03040  Uiso   1.00
loop_
_geom_bond_atom_site_label_1
_geom_bond_atom_site_label_2
_geom_bond_distance
_geom_bond_site_symmetry_2
_ccdc_geom_bond_type
Si     O1      1.632   .     S
Si     O3      1.650   .     S
Si     O4      1.638   .     S
Si     O2      1.647   4_455 S
Al     O2      1.912   .     S
Al     O5      1.877   1_556 S
Al     O4      1.940   2_556 S
Al     O1      1.855   4_455 S
Al     O4      1.873   4_556 S
Al     O1      1.978   2_557 S
O1     Al      1.855   4     S
O1     Al      1.978   2_547 S
O2     Si      1.647   4     S
O4     Al      1.940   2_546 S
O4     Al      1.873   4_454 S
O5     Al      1.877   1_554 S
O5     H       0.975   .     S
