data_98_Spodumene
_audit_creation_date              2021-06-16
_audit_creation_method            'Materials Studio'
_symmetry_space_group_name_H-M    ' '
_symmetry_Int_Tables_number       0
_symmetry_cell_setting            monoclinic
loop_
_symmetry_equiv_pos_as_xyz
  x,y,z
  -y,-x,-z+1/2
  -x,-y,-z
  y,x,z+1/2
_cell_length_a                    6.4100
_cell_length_b                    6.4100
_cell_length_c                    5.2750
_cell_angle_alpha                 105.3239
_cell_angle_beta                  105.3239
_cell_angle_gamma                 82.7374
loop_
_atom_site_label
_atom_site_type_symbol
_atom_site_fract_x
_atom_site_fract_y
_atom_site_fract_z
_atom_site_U_iso_or_equiv
_atom_site_adp_type
_atom_site_occupancy
Si3    Si   -0.19996   0.61336   0.24202   0.00000  Uiso   1.00
O4     O     0.02620   0.19218   0.64095   0.00000  Uiso   1.00
O5     O    -0.09980   0.36815   0.20022   0.00000  Uiso   1.00
O6     O    -0.33730   0.62751   0.93516   0.00000  Uiso   1.00
Li1    Li   -0.27048   0.27048   0.75000   0.00000  Uiso   1.00
Al2    Al   -0.09469   0.09469   0.25000   0.00000  Uiso   1.00
loop_
_geom_bond_atom_site_label_1
_geom_bond_atom_site_label_2
_geom_bond_distance
_geom_bond_site_symmetry_2
_ccdc_geom_bond_type
Si3    O5      1.602   .     S
Si3    O6      1.645   1_554 S
Si3    O6      1.642   4_464 S
Si3    O4      1.660   3_566 S
O4     Al2     1.960   .     S
O4     Si3     1.660   3_566 S
O4     Al2     2.031   3_556 S
O5     Al2     1.835   .     S
O6     Si3     1.645   1_556 S
O6     Si3     1.642   4_465 S
Al2    O5      1.835   2     S
Al2    O4      1.960   2     S
Al2    O4      2.031   3_556 S
Al2    O4      2.031   4_554 S
