data_99_Beryl
_audit_creation_date              2021-06-16
_audit_creation_method            'Materials Studio'
_symmetry_space_group_name_H-M    'P1'
_symmetry_Int_Tables_number       1
_symmetry_cell_setting            triclinic
loop_
_symmetry_equiv_pos_as_xyz
  x,y,z
_cell_length_a                    9.3035
_cell_length_b                    9.3035
_cell_length_c                    9.2776
_cell_angle_alpha                 90.0000
_cell_angle_beta                  90.0000
_cell_angle_gamma                 120.0000
loop_
_atom_site_label
_atom_site_type_symbol
_atom_site_fract_x
_atom_site_fract_y
_atom_site_fract_z
_atom_site_U_iso_or_equiv
_atom_site_adp_type
_atom_site_occupancy
Be0    Be    0.50000   0.00000   0.24983   0.00000  Uiso   1.00
Be1    Be   -0.00000   0.50000   0.75016   0.00000  Uiso   1.00
Be2    Be    0.50000   0.50000   0.75017   0.00000  Uiso   1.00
Be3    Be    0.50000   0.00000   0.75017   0.00000  Uiso   1.00
Be4    Be    0.00000   0.50000   0.24984   0.00000  Uiso   1.00
Be5    Be    0.50000   0.50000   0.24983   0.00000  Uiso   1.00
Al6    Al    0.66667   0.33333   0.25003   0.00000  Uiso   1.00
Al7    Al    0.33333   0.66667   0.25003   0.00000  Uiso   1.00
Al8    Al    0.33333   0.66667   0.74997   0.00000  Uiso   1.00
Al9    Al    0.66667   0.33333   0.74997   0.00000  Uiso   1.00
Si10   Si    0.61264   0.88488   0.00000   0.00000  Uiso   1.00
Si11   Si    0.61263   0.72775   0.50000   0.00000  Uiso   1.00
Si12   Si    0.27225   0.88488   0.50000   0.00000  Uiso   1.00
Si13   Si    0.72776   0.61264  -0.00000   0.00000  Uiso   1.00
Si14   Si    0.88488   0.27224  -0.00000   0.00000  Uiso   1.00
Si15   Si    0.11512   0.72776  -0.00000   0.00000  Uiso   1.00
Si16   Si    0.27224   0.38736  -0.00000   0.00000  Uiso   1.00
Si17   Si    0.38736   0.11512  -0.00000   0.00000  Uiso   1.00
Si18   Si    0.11512   0.38737   0.50000   0.00000  Uiso   1.00
Si19   Si    0.88488   0.61263   0.50000   0.00000  Uiso   1.00
Si20   Si    0.72775   0.11512   0.50000   0.00000  Uiso   1.00
Si21   Si    0.38737   0.27225   0.50000   0.00000  Uiso   1.00
O22    O     0.30947   0.07387   0.50000   0.00000  Uiso   1.00
O23    O     0.23560   0.30947   0.50000   0.00000  Uiso   1.00
O24    O     0.76440   0.69053   0.50000   0.00000  Uiso   1.00
O25    O     0.92613   0.23560   0.50000   0.00000  Uiso   1.00
O26    O     0.69052   0.76440  -0.00000   0.00000  Uiso   1.00
O27    O     0.69053   0.92613   0.50000   0.00000  Uiso   1.00
O28    O     0.07387   0.76440   0.50000   0.00000  Uiso   1.00
O29    O     0.92612   0.69053   0.00000   0.00000  Uiso   1.00
O30    O     0.76440   0.07387  -0.00000   0.00000  Uiso   1.00
O31    O     0.23560   0.92613  -0.00000   0.00000  Uiso   1.00
O32    O     0.07388   0.30947  -0.00000   0.00000  Uiso   1.00
O33    O     0.30947   0.23560   0.00000   0.00000  Uiso   1.00
O34    O     0.50160   0.64633   0.64574   0.00000  Uiso   1.00
O35    O     0.35366   0.85526   0.64574   0.00000  Uiso   1.00
O36    O     0.14474   0.49841   0.64574   0.00000  Uiso   1.00
O37    O     0.85526   0.50159   0.64574   0.00000  Uiso   1.00
O38    O     0.49840   0.14474   0.14572   0.00000  Uiso   1.00
O39    O     0.35366   0.49840   0.14572   0.00000  Uiso   1.00
O40    O     0.14474   0.64634   0.14572   0.00000  Uiso   1.00
O41    O     0.85526   0.35366   0.14572   0.00000  Uiso   1.00
O42    O     0.64634   0.50160   0.14572   0.00000  Uiso   1.00
O43    O     0.35366   0.85526   0.35426   0.00000  Uiso   1.00
O44    O     0.50160   0.64633   0.35426   0.00000  Uiso   1.00
O45    O     0.50160   0.85526   0.14572   0.00000  Uiso   1.00
O46    O     0.14474   0.49841   0.35426   0.00000  Uiso   1.00
O47    O     0.85526   0.50159   0.35426   0.00000  Uiso   1.00
O48    O     0.64634   0.14474   0.35426   0.00000  Uiso   1.00
O49    O     0.49840   0.35367   0.35426   0.00000  Uiso   1.00
O50    O     0.50160   0.85526   0.85428   0.00000  Uiso   1.00
O51    O     0.64634   0.50160   0.85428   0.00000  Uiso   1.00
O52    O     0.85526   0.35366   0.85428   0.00000  Uiso   1.00
O53    O     0.14474   0.64634   0.85428   0.00000  Uiso   1.00
O54    O     0.35366   0.49840   0.85428   0.00000  Uiso   1.00
O55    O     0.64634   0.14474   0.64574   0.00000  Uiso   1.00
O56    O     0.49840   0.35367   0.64574   0.00000  Uiso   1.00
O57    O     0.49840   0.14474   0.85428   0.00000  Uiso   1.00
